<configuration>
    <input>
        <net-file value="network.net.xml"/>
        <route-files value="routes.rou.xml"/>
        <additional-files value="loops.det.xml"/>
    </input>
    <time>
        <begin value="0"/>
        <end value="30"/>
    </time>
</configuration>