<edges>
    <edge from="n1" to="n2" id="1to2" type="1L60"/>
    <edge from="n2" to="n3" id="2to3" type="1L60"/>
    <edge from="n4" to="n2" id="4to2" type="1L60"/>
    <edge from="n2" to="n5" id="2to5" type="1L60"/>

    <edge from="n7" to="n3" id="7to3" type="1L60"/>
    <edge from="n3" to="n8" id="3to8" type="1L60"/>
    <edge from="n3" to="n6" id="3to6" type="1L60"/>
</edges>