<nodes>
    <node id="n1" x="-250" y ="0" type="priority"/>
    <node id="n2" x="0" y ="0" type="traffic_light"/>
    <node id="n3" x="250" y ="0" type="traffic_light"/>

    <node id="n4" x="0" y ="250" type="priority"/>
    <node id="n5" x="0" y ="-250" type="priority"/>

    <node id="n6" x="500" y ="0" type="priority"/>
    <node id="n7" x="250" y ="250" type="priority"/>
    <node id="n8" x="250" y ="-250" type="priority"/>
</nodes>