<routes>
<vType accel="1.0" decel="5.0" id="Car" length="2.0" maxSpeed="100.0" sigma="0.0" />
<route id="route0" edges="1to2 2to3 3to6" />
<route id="route1" edges="4to2 2to5" />
<route id="route2" edges="7to3 3to8" />
<vehicle id="0" type="Car" route="route0" depart="0" />
<vehicle id="1" type="Car" route="route0" depart="1" />
<vehicle id="2" type="Car" route="route0" depart="2" />
<vehicle id="3" type="Car" route="route0" depart="3" />
<vehicle id="4" type="Car" route="route0" depart="5" />
<vehicle id="5" type="Car" route="route2" depart="6" />
<vehicle id="6" type="Car" route="route1" depart="7" />
<vehicle id="7" type="Car" route="route0" depart="8" />
<vehicle id="8" type="Car" route="route2" depart="10" />
<vehicle id="9" type="Car" route="route1" depart="12" />
<vehicle id="10" type="Car" route="route0" depart="13" />
<vehicle id="11" type="Car" route="route2" depart="15" />
<vehicle id="12" type="Car" route="route0" depart="17" />
<vehicle id="13" type="Car" route="route0" depart="19" />
<vehicle id="14" type="Car" route="route1" depart="20" />
<vehicle id="15" type="Car" route="route1" depart="22" />
<vehicle id="16" type="Car" route="route0" depart="24" />
<vehicle id="17" type="Car" route="route1" depart="25" />
<vehicle id="18" type="Car" route="route2" depart="27" />
<vehicle id="19" type="Car" route="route2" depart="28" />
<vehicle id="20" type="Car" route="route2" depart="29" />
<vehicle id="21" type="Car" route="route2" depart="30" />
<vehicle id="22" type="Car" route="route2" depart="31" />
<vehicle id="23" type="Car" route="route2" depart="32" />
<vehicle id="24" type="Car" route="route0" depart="34" />
<vehicle id="25" type="Car" route="route0" depart="36" />
<vehicle id="26" type="Car" route="route2" depart="37" />
<vehicle id="27" type="Car" route="route2" depart="39" />
<vehicle id="28" type="Car" route="route0" depart="41" />
<vehicle id="29" type="Car" route="route2" depart="42" />
<vehicle id="30" type="Car" route="route0" depart="44" />
<vehicle id="31" type="Car" route="route2" depart="46" />
<vehicle id="32" type="Car" route="route2" depart="47" />
<vehicle id="33" type="Car" route="route2" depart="48" />
<vehicle id="34" type="Car" route="route2" depart="50" />
<vehicle id="35" type="Car" route="route1" depart="52" />
<vehicle id="36" type="Car" route="route0" depart="54" />
<vehicle id="37" type="Car" route="route0" depart="55" />
<vehicle id="38" type="Car" route="route0" depart="56" />
<vehicle id="39" type="Car" route="route1" depart="58" />
<vehicle id="40" type="Car" route="route2" depart="60" />
<vehicle id="41" type="Car" route="route0" depart="61" />
<vehicle id="42" type="Car" route="route0" depart="63" />
<vehicle id="43" type="Car" route="route1" depart="65" />
<vehicle id="44" type="Car" route="route2" depart="66" />
<vehicle id="45" type="Car" route="route0" depart="67" />
<vehicle id="46" type="Car" route="route0" depart="69" />
<vehicle id="47" type="Car" route="route0" depart="71" />
<vehicle id="48" type="Car" route="route1" depart="73" />
<vehicle id="49" type="Car" route="route1" depart="74" />
<vehicle id="50" type="Car" route="route0" depart="75" />
<vehicle id="51" type="Car" route="route0" depart="76" />
<vehicle id="52" type="Car" route="route1" depart="78" />
<vehicle id="53" type="Car" route="route1" depart="79" />
<vehicle id="54" type="Car" route="route1" depart="81" />
<vehicle id="55" type="Car" route="route0" depart="83" />
<vehicle id="56" type="Car" route="route2" depart="85" />
<vehicle id="57" type="Car" route="route2" depart="86" />
<vehicle id="58" type="Car" route="route0" depart="88" />
<vehicle id="59" type="Car" route="route2" depart="89" />
<vehicle id="60" type="Car" route="route0" depart="91" />
<vehicle id="61" type="Car" route="route2" depart="93" />
<vehicle id="62" type="Car" route="route2" depart="95" />
<vehicle id="63" type="Car" route="route1" depart="97" />
<vehicle id="64" type="Car" route="route0" depart="99" />
<vehicle id="65" type="Car" route="route2" depart="101" />
<vehicle id="66" type="Car" route="route1" depart="103" />
<vehicle id="67" type="Car" route="route0" depart="105" />
<vehicle id="68" type="Car" route="route1" depart="107" />
<vehicle id="69" type="Car" route="route2" depart="109" />
<vehicle id="70" type="Car" route="route2" depart="110" />
<vehicle id="71" type="Car" route="route2" depart="112" />
<vehicle id="72" type="Car" route="route2" depart="114" />
<vehicle id="73" type="Car" route="route2" depart="116" />
<vehicle id="74" type="Car" route="route1" depart="117" />
<vehicle id="75" type="Car" route="route0" depart="118" />
<vehicle id="76" type="Car" route="route1" depart="119" />
<vehicle id="77" type="Car" route="route0" depart="120" />
<vehicle id="78" type="Car" route="route1" depart="122" />
<vehicle id="79" type="Car" route="route2" depart="124" />
<vehicle id="80" type="Car" route="route2" depart="125" />
<vehicle id="81" type="Car" route="route0" depart="127" />
<vehicle id="82" type="Car" route="route1" depart="129" />
<vehicle id="83" type="Car" route="route2" depart="131" />
<vehicle id="84" type="Car" route="route0" depart="132" />
<vehicle id="85" type="Car" route="route1" depart="133" />
<vehicle id="86" type="Car" route="route2" depart="135" />
<vehicle id="87" type="Car" route="route2" depart="137" />
<vehicle id="88" type="Car" route="route2" depart="138" />
<vehicle id="89" type="Car" route="route2" depart="139" />
<vehicle id="90" type="Car" route="route0" depart="141" />
<vehicle id="91" type="Car" route="route0" depart="143" />
<vehicle id="92" type="Car" route="route2" depart="145" />
<vehicle id="93" type="Car" route="route2" depart="147" />
<vehicle id="94" type="Car" route="route2" depart="149" />
<vehicle id="95" type="Car" route="route2" depart="150" />
<vehicle id="96" type="Car" route="route1" depart="152" />
<vehicle id="97" type="Car" route="route0" depart="154" />
<vehicle id="98" type="Car" route="route0" depart="155" />
<vehicle id="99" type="Car" route="route2" depart="156" />
<vehicle id="100" type="Car" route="route1" depart="157" />
<vehicle id="101" type="Car" route="route1" depart="159" />
<vehicle id="102" type="Car" route="route2" depart="161" />
<vehicle id="103" type="Car" route="route0" depart="163" />
<vehicle id="104" type="Car" route="route0" depart="165" />
<vehicle id="105" type="Car" route="route2" depart="166" />
<vehicle id="106" type="Car" route="route0" depart="168" />
<vehicle id="107" type="Car" route="route1" depart="169" />
<vehicle id="108" type="Car" route="route0" depart="170" />
<vehicle id="109" type="Car" route="route0" depart="172" />
<vehicle id="110" type="Car" route="route1" depart="174" />
<vehicle id="111" type="Car" route="route0" depart="175" />
<vehicle id="112" type="Car" route="route2" depart="177" />
<vehicle id="113" type="Car" route="route0" depart="179" />
<vehicle id="114" type="Car" route="route0" depart="181" />
<vehicle id="115" type="Car" route="route0" depart="183" />
<vehicle id="116" type="Car" route="route2" depart="185" />
<vehicle id="117" type="Car" route="route1" depart="187" />
<vehicle id="118" type="Car" route="route1" depart="189" />
<vehicle id="119" type="Car" route="route2" depart="190" />
<vehicle id="120" type="Car" route="route0" depart="191" />
<vehicle id="121" type="Car" route="route2" depart="192" />
<vehicle id="122" type="Car" route="route1" depart="193" />
<vehicle id="123" type="Car" route="route1" depart="194" />
<vehicle id="124" type="Car" route="route1" depart="195" />
<vehicle id="125" type="Car" route="route0" depart="197" />
<vehicle id="126" type="Car" route="route0" depart="199" />
<vehicle id="127" type="Car" route="route2" depart="201" />
<vehicle id="128" type="Car" route="route0" depart="203" />
<vehicle id="129" type="Car" route="route0" depart="205" />
<vehicle id="130" type="Car" route="route0" depart="207" />
<vehicle id="131" type="Car" route="route2" depart="208" />
<vehicle id="132" type="Car" route="route0" depart="209" />
<vehicle id="133" type="Car" route="route0" depart="210" />
<vehicle id="134" type="Car" route="route0" depart="211" />
<vehicle id="135" type="Car" route="route1" depart="213" />
<vehicle id="136" type="Car" route="route1" depart="215" />
<vehicle id="137" type="Car" route="route0" depart="216" />
<vehicle id="138" type="Car" route="route2" depart="217" />
<vehicle id="139" type="Car" route="route0" depart="218" />
<vehicle id="140" type="Car" route="route0" depart="219" />
<vehicle id="141" type="Car" route="route0" depart="220" />
<vehicle id="142" type="Car" route="route1" depart="221" />
<vehicle id="143" type="Car" route="route2" depart="223" />
<vehicle id="144" type="Car" route="route1" depart="224" />
<vehicle id="145" type="Car" route="route2" depart="226" />
<vehicle id="146" type="Car" route="route0" depart="227" />
<vehicle id="147" type="Car" route="route2" depart="229" />
<vehicle id="148" type="Car" route="route0" depart="230" />
<vehicle id="149" type="Car" route="route1" depart="231" />
</routes>
