<additional>

    <e1Detector id="valandro02" lane="valandro001tovalandro002_0" pos="65" freq="100.00" file="detecs.out" friendlyPos="0"/>
    <e1Detector id="venancio01" lane="venancio001tovenancio002_0" pos="183.5" freq="100.00" file="detecs.out" friendlyPos="0"/>
 
</additional>