<additional>
    <laneAreaDetector id="silva01" lane="silva003tosilva004_0" pos="40.69" freq="30" length="35" file="loops.out" friendlyPos="x"/>
    <laneAreaDetector id="silva02" lane="floriano003tosilva005_0" pos="143" freq="30" length="35" file="loops.out" friendlyPos="x"/>
    <laneAreaDetector id="silva03" lane="riobranco103tosilva006_0" pos="2" freq="30" length="20" file="loops.out" friendlyPos="x"/>
    
    <laneAreaDetector id="venancio01" lane="venancio001tovenancio002_0" pos="147" freq="30" length="35" file="loops.out" friendlyPos="x"/>
    <laneAreaDetector id="venancio02" lane="valandro003tovenancio003_0" pos="136" freq="30" length="35" file="loops.out" friendlyPos="x"/>
    <laneAreaDetector id="venancio03" lane="venancio004tovenancio005_0" pos="67" freq="30" length="35" file="loops.out" friendlyPos="x"/>

    <laneAreaDetector id="andradas03" lane="riobranco108toandradas010_0" pos="120" freq="30" length="55" file="loops.out" friendlyPos="x"/>
    <laneAreaDetector id="andradas04" lane="floriano005toandradas011_0" pos="136" freq="30" length="35" file="loops.out" friendlyPos="x"/>


    <laneAreaDetector id="valandro01" lane="valandro003tovalandro004_0" pos="115" freq="30" length="35" file="loops.out" friendlyPos="x"/>
    <laneAreaDetector id="valandro02" lane="valandro001tovalandro002_0" pos="29" freq="30" length="35" file="loops.out" friendlyPos="x"/>

    <laneAreaDetector id="floriano01" lane="floriano001tofloriano002_0" pos="77" freq="30" length="35" file="loops.out" friendlyPos="x"/>
    <laneAreaDetector id="floriano02" lane="floriano003tofloriano004_0" pos="103" freq="30" length="35" file="loops.out" friendlyPos="x"/>
    <laneAreaDetector id="floriano03" lane="floriano006tofloriano007_0" pos="22" freq="30" length="35" file="loops.out" friendlyPos="x"/>

</additional>