<?xml version="1.0" encoding="UTF-8"?>

<!-- generated on 09/10/2018 12:44:38 by Netedit Version 0.32.0
<?xml version="1.0" encoding="UTF-8"?>

<configuration xmlns:xsi="http://www.w3.org/2001/XMLSchema-instance" xsi:noNamespaceSchemaLocation="http://sumo.dlr.de/xsd/netconvertConfiguration.xsd">

    <input>
        <sumo-net-file value="C:\Users\Leonardo\Python\Sumo\SantaMaria\dat\netsm.net.xml"/>
    </input>

    <output>
        <output-file value="C:\Users\Leonardo\Python\Sumo\SantaMaria\dat\netsm.net.xml"/>
    </output>

    <processing>
        <no-turnarounds value="true"/>
        <offset.disable-normalization value="true"/>
        <lefthand value="false"/>
        <junctions.corner-detail value="0"/>
        <rectangular-lane-cut value="false"/>
        <walkingareas value="false"/>
    </processing>

</configuration>
-->

<net version="0.27" xmlns:xsi="http://www.w3.org/2001/XMLSchema-instance" xsi:noNamespaceSchemaLocation="http://sumo.dlr.de/xsd/net_file.xsd">

    <location netOffset="-227452.49,3287481.35" convBoundary="256.05,49.16,1114.95,613.96" origBoundary="-53.816456,-29.687620,-53.804916,-29.680695" projParameter="+proj=utm +zone=22 +ellps=WGS84 +datum=WGS84 +units=m +no_defs"/>

    <type id="highway.bridleway" priority="1" numLanes="1" speed="2.78" allow="pedestrian" oneway="1" width="2.00"/>
    <type id="highway.bus_guideway" priority="1" numLanes="1" speed="8.33" allow="bus" oneway="1"/>
    <type id="highway.cycleway" priority="1" numLanes="1" speed="5.56" allow="bicycle" oneway="0" width="1.00"/>
    <type id="highway.footway" priority="1" numLanes="1" speed="2.78" allow="pedestrian" oneway="1" width="2.00"/>
    <type id="highway.ford" priority="1" numLanes="1" speed="2.78" allow="army" oneway="0"/>
    <type id="highway.living_street" priority="3" numLanes="1" speed="2.78" disallow="tram rail_urban rail rail_electric ship" oneway="0"/>
    <type id="highway.motorway" priority="13" numLanes="2" speed="44.44" allow="private emergency authority army vip passenger hov taxi bus coach delivery truck trailer motorcycle evehicle custom1 custom2" oneway="1"/>
    <type id="highway.motorway_link" priority="12" numLanes="1" speed="22.22" allow="private emergency authority army vip passenger hov taxi bus coach delivery truck trailer motorcycle evehicle custom1 custom2" oneway="1"/>
    <type id="highway.path" priority="1" numLanes="1" speed="2.78" allow="bicycle pedestrian" oneway="1" width="2.00"/>
    <type id="highway.pedestrian" priority="1" numLanes="1" speed="2.78" allow="pedestrian" oneway="1" width="2.00"/>
    <type id="highway.primary" priority="9" numLanes="2" speed="27.78" disallow="tram rail_urban rail rail_electric ship" oneway="0"/>
    <type id="highway.primary_link" priority="8" numLanes="1" speed="22.22" disallow="tram rail_urban rail rail_electric ship" oneway="0"/>
    <type id="highway.raceway" priority="14" numLanes="2" speed="83.33" allow="vip" oneway="0"/>
    <type id="highway.residential" priority="4" numLanes="1" speed="13.89" disallow="tram rail_urban rail rail_electric ship" oneway="0"/>
    <type id="highway.secondary" priority="7" numLanes="2" speed="27.78" disallow="tram rail_urban rail rail_electric ship" oneway="0"/>
    <type id="highway.secondary_link" priority="6" numLanes="1" speed="22.22" disallow="tram rail_urban rail rail_electric ship" oneway="0"/>
    <type id="highway.service" priority="2" numLanes="1" speed="5.56" allow="delivery bicycle pedestrian" oneway="0"/>
    <type id="highway.services" priority="1" numLanes="1" speed="8.33" disallow="tram rail_urban rail rail_electric ship" oneway="0"/>
    <type id="highway.stairs" priority="1" numLanes="1" speed="1.39" allow="pedestrian" oneway="1" width="2.00"/>
    <type id="highway.step" priority="1" numLanes="1" speed="1.39" allow="pedestrian" oneway="1" width="2.00"/>
    <type id="highway.steps" priority="1" numLanes="1" speed="1.39" allow="pedestrian" oneway="1" width="2.00"/>
    <type id="highway.tertiary" priority="6" numLanes="1" speed="22.22" disallow="tram rail_urban rail rail_electric ship" oneway="0"/>
    <type id="highway.tertiary_link" priority="5" numLanes="1" speed="22.22" disallow="tram rail_urban rail rail_electric ship" oneway="0"/>
    <type id="highway.track" priority="1" numLanes="1" speed="5.56" disallow="tram rail_urban rail rail_electric ship" oneway="0"/>
    <type id="highway.trunk" priority="11" numLanes="2" speed="27.78" disallow="tram rail_urban rail rail_electric bicycle pedestrian ship" oneway="0"/>
    <type id="highway.trunk_link" priority="10" numLanes="1" speed="22.22" disallow="tram rail_urban rail rail_electric bicycle pedestrian ship" oneway="0"/>
    <type id="highway.unclassified" priority="5" numLanes="1" speed="13.89" disallow="tram rail_urban rail rail_electric ship" oneway="0"/>
    <type id="highway.unsurfaced" priority="1" numLanes="1" speed="8.33" disallow="tram rail_urban rail rail_electric ship" oneway="0"/>
    <type id="railway.light_rail" priority="15" numLanes="1" speed="27.78" allow="rail_urban" oneway="1"/>
    <type id="railway.preserved" priority="15" numLanes="1" speed="27.78" allow="rail" oneway="1"/>
    <type id="railway.rail" priority="15" numLanes="1" speed="83.33" allow="rail rail_electric" oneway="1"/>
    <type id="railway.subway" priority="15" numLanes="1" speed="27.78" allow="rail_urban" oneway="1"/>
    <type id="railway.tram" priority="15" numLanes="1" speed="13.89" allow="tram" oneway="1"/>

    <edge id=":andradas002_0" function="internal">
        <lane id=":andradas002_0_0" index="0" disallow="tram rail_urban rail rail_electric ship" speed="22.22" length="0.30" shape="996.75,415.90 996.46,415.82"/>
        <lane id=":andradas002_0_1" index="1" disallow="tram rail_urban rail rail_electric ship" speed="22.22" length="0.30" shape="997.64,412.72 997.36,412.64"/>
    </edge>
    <edge id=":andradas003_0" function="internal">
        <lane id=":andradas003_0_0" index="0" disallow="tram rail_urban rail rail_electric ship" speed="22.22" length="3.55" shape="973.77,409.40 972.79,409.38 972.10,409.78 971.42,410.18 970.43,410.16"/>
        <lane id=":andradas003_0_1" index="1" disallow="tram rail_urban rail rail_electric ship" speed="22.22" length="3.55" shape="973.77,409.40 972.93,408.89 972.56,408.19 972.18,407.50 971.34,406.99"/>
        <lane id=":andradas003_0_2" index="2" disallow="tram rail_urban rail rail_electric ship" speed="22.22" length="3.55" shape="974.67,406.22 973.83,405.71 973.46,405.02 973.08,404.32 972.24,403.82"/>
    </edge>
    <edge id=":andradas004_0" function="internal">
        <lane id=":andradas004_0_0" index="0" disallow="tram rail_urban rail rail_electric ship" speed="22.22" length="0.30" shape="927.76,397.99 927.48,397.91"/>
        <lane id=":andradas004_0_1" index="1" disallow="tram rail_urban rail rail_electric ship" speed="22.22" length="0.30" shape="928.66,394.82 928.38,394.74"/>
        <lane id=":andradas004_0_2" index="2" disallow="tram rail_urban rail rail_electric ship" speed="22.22" length="0.30" shape="929.57,391.65 929.28,391.56"/>
    </edge>
    <edge id=":andradas005_0" function="internal">
        <lane id=":andradas005_0_0" index="0" disallow="tram rail_urban rail rail_electric ship" speed="22.22" length="0.30" shape="920.46,395.93 920.17,395.84"/>
        <lane id=":andradas005_0_1" index="1" disallow="tram rail_urban rail rail_electric ship" speed="22.22" length="0.30" shape="921.36,392.75 921.08,392.67"/>
        <lane id=":andradas005_0_2" index="2" disallow="tram rail_urban rail rail_electric ship" speed="22.22" length="0.30" shape="922.26,389.58 921.98,389.50"/>
    </edge>
    <edge id=":andradas006_0" function="internal">
        <lane id=":andradas006_0_0" index="0" disallow="tram rail_urban rail rail_electric ship" speed="22.22" length="0.30" shape="896.43,388.98 896.14,388.90"/>
        <lane id=":andradas006_0_1" index="1" disallow="tram rail_urban rail rail_electric ship" speed="22.22" length="0.30" shape="897.35,385.81 897.07,385.73"/>
        <lane id=":andradas006_0_2" index="2" disallow="tram rail_urban rail rail_electric ship" speed="22.22" length="0.30" shape="898.27,382.64 897.99,382.56"/>
    </edge>
    <edge id=":andradas007_0" function="internal">
        <lane id=":andradas007_0_0" index="0" disallow="tram rail_urban rail rail_electric ship" speed="22.22" length="0.30" shape="868.33,380.81 867.95,380.69"/>
        <lane id=":andradas007_0_1" index="1" disallow="tram rail_urban rail rail_electric ship" speed="22.22" length="0.30" shape="869.26,377.64 868.97,377.55"/>
        <lane id=":andradas007_0_2" index="2" disallow="tram rail_urban rail rail_electric ship" speed="22.22" length="0.30" shape="870.18,374.47 869.98,374.41"/>
    </edge>
    <edge id=":andradas008_0" function="internal">
        <lane id=":andradas008_0_0" index="0" disallow="tram rail_urban rail rail_electric ship" speed="22.22" length="4.26" shape="844.85,367.92 841.50,370.56"/>
    </edge>
    <edge id=":andradas009_0" function="internal">
        <lane id=":andradas009_0_0" index="0" disallow="tram rail_urban rail rail_electric ship" speed="22.22" length="3.73" shape="841.31,370.52 838.02,373.19"/>
        <lane id=":andradas009_0_1" index="1" disallow="tram rail_urban rail rail_electric ship" speed="22.22" length="3.73" shape="841.31,370.52 838.69,369.96"/>
        <lane id=":andradas009_0_2" index="2" disallow="tram rail_urban rail rail_electric ship" speed="22.22" length="3.73" shape="841.31,370.52 839.35,366.73"/>
    </edge>
    <edge id=":andradas010_0" function="internal">
        <lane id=":andradas010_0_0" index="0" disallow="tram rail_urban rail rail_electric ship" speed="22.22" length="0.10" shape="656.94,318.68 656.94,318.68"/>
    </edge>
    <edge id=":andradas011_0" function="internal">
        <lane id=":andradas011_0_0" index="0" disallow="tram rail_urban rail rail_electric ship" speed="22.22" length="0.30" shape="485.17,270.26 484.89,270.18"/>
    </edge>
    <edge id=":floriano002_0" function="internal">
        <lane id=":floriano002_0_0" index="0" disallow="tram rail_urban rail rail_electric ship" speed="13.89" length="0.15" shape="611.18,462.75 611.22,462.61"/>
    </edge>
    <edge id=":floriano003_0" function="internal">
        <lane id=":floriano003_0_0" index="0" disallow="tram rail_urban rail rail_electric ship" speed="18.06" length="6.60" shape="609.37,457.56 610.81,457.58 612.03,456.93 613.03,455.62 613.80,453.64"/>
    </edge>
    <edge id=":floriano003_1" function="internal">
        <lane id=":floriano003_1_0" index="0" disallow="tram rail_urban rail rail_electric ship" speed="22.22" length="6.71" shape="609.37,457.56 611.32,457.74 612.69,457.48 614.06,457.22 616.01,457.43"/>
    </edge>
    <edge id=":floriano003_2" function="internal">
        <lane id=":floriano003_2_0" index="0" disallow="tram rail_urban rail rail_electric ship" speed="13.89" length="9.18" shape="611.26,462.47 613.80,453.64"/>
    </edge>
    <edge id=":floriano003_3" function="internal">
        <lane id=":floriano003_3_0" index="0" disallow="tram rail_urban rail rail_electric ship" speed="18.06" length="4.92" shape="611.26,462.47 611.79,461.37 612.63,460.70 613.78,460.46 615.23,460.63"/>
    </edge>
    <edge id=":floriano004_0" function="internal">
        <lane id=":floriano004_0_0" index="0" disallow="tram rail_urban rail rail_electric ship" speed="13.89" length="0.10" shape="650.61,323.62 650.61,323.62"/>
    </edge>
    <edge id=":floriano005_0" function="internal">
        <lane id=":floriano005_0_0" index="0" disallow="tram rail_urban rail rail_electric ship" speed="22.22" length="6.25" shape="655.36,318.23 649.36,316.50"/>
    </edge>
    <edge id=":floriano005_1" function="internal">
        <lane id=":floriano005_1_0" index="0" disallow="tram rail_urban rail rail_electric ship" speed="18.06" length="5.08" shape="655.36,318.23 654.11,317.67 653.32,316.83 653.01,315.72 653.17,314.33"/>
    </edge>
    <edge id=":floriano005_2" function="internal">
        <lane id=":floriano005_2_0" index="0" disallow="tram rail_urban rail rail_electric ship" speed="18.06" length="5.05" shape="651.53,320.36 651.71,319.00 651.41,317.91 650.63,317.07 649.36,316.50"/>
    </edge>
    <edge id=":floriano005_3" function="internal">
        <lane id=":floriano005_3_0" index="0" disallow="tram rail_urban rail rail_electric ship" speed="13.89" length="6.25" shape="651.53,320.36 653.17,314.33"/>
    </edge>
    <edge id=":floriano006_0" function="internal">
        <lane id=":floriano006_0_0" index="0" disallow="tram rail_urban rail rail_electric ship" speed="13.89" length="0.30" shape="676.72,223.06 676.80,222.78"/>
    </edge>
    <edge id=":floriano007_0" function="internal">
        <lane id=":floriano007_0_0" index="0" disallow="tram rail_urban rail rail_electric ship" speed="13.89" length="0.30" shape="691.27,165.42 691.35,165.12"/>
    </edge>
    <edge id=":floriano008_0" function="internal">
        <lane id=":floriano008_0_0" index="0" disallow="tram rail_urban rail rail_electric ship" speed="13.89" length="5.11" shape="689.65,159.12 691.05,159.27 692.17,158.95 693.01,158.16 693.59,156.90"/>
    </edge>
    <edge id=":floriano008_1" function="internal">
        <lane id=":floriano008_1_0" index="0" disallow="tram rail_urban rail rail_electric ship" speed="22.22" length="6.28" shape="689.65,159.12 695.71,160.80"/>
    </edge>
    <edge id=":floriano008_2" function="internal">
        <lane id=":floriano008_2_0" index="0" disallow="tram rail_urban rail rail_electric ship" speed="9.73" length="6.29" shape="691.89,162.95 693.59,156.90"/>
    </edge>
    <edge id=":floriano008_3" function="internal">
        <lane id=":floriano008_3_0" index="0" disallow="tram rail_urban rail rail_electric ship" speed="18.06" length="5.06" shape="691.89,162.95 692.42,161.66 693.24,160.87 694.33,160.58 695.71,160.80"/>
    </edge>
    <edge id=":riobranco002_0" function="internal">
        <lane id=":riobranco002_0_0" index="0" disallow="tram rail_urban rail rail_electric ship" speed="22.22" length="6.32" shape="827.90,502.76 827.57,504.78 827.76,506.35 828.47,507.45 829.70,508.08"/>
    </edge>
    <edge id=":riobranco002_1" function="internal">
        <lane id=":riobranco002_1_0" index="0" disallow="tram rail_urban rail rail_electric ship" speed="22.22" length="11.61" shape="824.71,501.92 824.21,505.39 824.73,508.11 826.28,510.06 828.85,511.27"/>
    </edge>
    <edge id=":riobranco002_2" function="internal">
        <lane id=":riobranco002_2_0" index="0" disallow="tram rail_urban rail rail_electric ship" speed="22.22" length="13.45" shape="824.71,501.92 824.22,505.82 824.64,508.60 825.02,511.37 824.41,515.24"/>
    </edge>
    <edge id=":riobranco002_3" function="internal">
        <lane id=":riobranco002_3_0" index="0" disallow="tram rail_urban rail rail_electric ship" speed="22.22" length="9.97" shape="820.57,504.08 823.37,505.01 825.15,506.03 826.93,507.07 829.70,508.08"/>
        <lane id=":riobranco002_3_1" index="1" disallow="tram rail_urban rail rail_electric ship" speed="22.22" length="9.97" shape="819.81,507.29 822.58,508.21 824.34,509.23 826.10,510.27 828.85,511.27"/>
    </edge>
    <edge id=":riobranco002_5" function="internal">
        <lane id=":riobranco002_5_0" index="0" disallow="tram rail_urban rail rail_electric ship" speed="22.22" length="5.07" shape="819.05,510.50 820.35,511.02 821.15,511.82 821.45,512.91 821.25,514.30"/>
    </edge>
    <edge id=":riobranco003_0" function="internal">
        <lane id=":riobranco003_0_0" index="0" disallow="tram rail_urban rail rail_electric ship" speed="22.22" length="0.30" shape="829.01,498.53 828.94,498.82"/>
        <lane id=":riobranco003_0_1" index="1" disallow="tram rail_urban rail rail_electric ship" speed="22.22" length="0.30" shape="825.82,497.70 825.75,497.99"/>
    </edge>
    <edge id=":riobranco004_0" function="internal">
        <lane id=":riobranco004_0_0" index="0" disallow="tram rail_urban rail rail_electric ship" speed="22.22" length="0.30" shape="835.26,474.70 835.19,474.99"/>
        <lane id=":riobranco004_0_1" index="1" disallow="tram rail_urban rail rail_electric ship" speed="22.22" length="0.30" shape="832.07,473.87 832.00,474.16"/>
    </edge>
    <edge id=":riobranco005_0" function="internal">
        <lane id=":riobranco005_0_0" index="0" disallow="tram rail_urban rail rail_electric ship" speed="22.22" length="0.30" shape="844.22,440.58 844.15,440.87"/>
        <lane id=":riobranco005_0_1" index="1" disallow="tram rail_urban rail rail_electric ship" speed="22.22" length="0.30" shape="841.03,439.75 840.96,440.04"/>
    </edge>
    <edge id=":riobranco006_0" function="internal">
        <lane id=":riobranco006_0_0" index="0" disallow="tram rail_urban rail rail_electric ship" speed="22.22" length="5.07" shape="863.60,379.29 862.22,379.06 861.12,379.33 860.30,380.11 859.75,381.40"/>
    </edge>
    <edge id=":riobranco006_1" function="internal">
        <lane id=":riobranco006_1_0" index="0" disallow="tram rail_urban rail rail_electric ship" speed="22.22" length="9.97" shape="863.60,379.29 860.87,378.42 858.99,377.86 857.09,377.39 854.29,376.77"/>
        <lane id=":riobranco006_1_1" index="1" disallow="tram rail_urban rail rail_electric ship" speed="22.22" length="9.97" shape="864.61,376.15 861.79,375.25 859.85,374.68 857.89,374.19 855.00,373.54"/>
        <lane id=":riobranco006_1_2" index="2" disallow="tram rail_urban rail rail_electric ship" speed="22.22" length="9.97" shape="865.62,373.01 862.72,372.08 860.72,371.49 858.69,370.99 855.71,370.32"/>
    </edge>
    <edge id=":riobranco006_4" function="internal">
        <lane id=":riobranco006_4_0" index="0" disallow="tram rail_urban rail rail_electric ship" speed="22.22" length="9.64" shape="862.23,372.10 859.75,381.40"/>
        <lane id=":riobranco006_4_1" index="1" disallow="tram rail_urban rail rail_electric ship" speed="22.22" length="9.64" shape="859.04,371.23 856.56,380.56"/>
    </edge>
    <edge id=":riobranco006_6" function="internal">
        <lane id=":riobranco006_6_0" index="0" disallow="tram rail_urban rail rail_electric ship" speed="22.22" length="5.25" shape="859.04,371.23 858.48,372.51 857.62,373.32 856.46,373.67 855.00,373.54"/>
    </edge>
    <edge id=":riobranco006_7" function="internal">
        <lane id=":riobranco006_7_0" index="0" disallow="tram rail_urban rail rail_electric ship" speed="22.22" length="3.66" shape="859.04,371.23 858.55,371.53 857.64,371.22 856.61,370.69 855.71,370.32"/>
    </edge>
    <edge id=":riobranco007_0" function="internal">
        <lane id=":riobranco007_0_0" index="0" disallow="tram rail_urban rail rail_electric ship" speed="22.22" length="3.18" shape="863.10,368.91 862.28,371.91"/>
        <lane id=":riobranco007_0_1" index="1" disallow="tram rail_urban rail rail_electric ship" speed="22.22" length="3.18" shape="859.96,367.91 859.09,371.04"/>
    </edge>
    <edge id=":riobranco008_0" function="internal">
        <lane id=":riobranco008_0_0" index="0" disallow="tram rail_urban rail rail_electric ship" speed="22.22" length="0.29" shape="870.85,344.64 870.76,344.94"/>
        <lane id=":riobranco008_0_1" index="1" disallow="tram rail_urban rail rail_electric ship" speed="22.22" length="0.29" shape="867.69,343.68 867.61,343.94"/>
    </edge>
    <edge id=":riobranco009_0" function="internal">
        <lane id=":riobranco009_0_0" index="0" disallow="tram rail_urban rail rail_electric ship" speed="22.22" length="0.24" shape="881.70,308.90 881.61,309.19"/>
        <lane id=":riobranco009_0_1" index="1" disallow="tram rail_urban rail rail_electric ship" speed="22.22" length="0.24" shape="878.50,308.07 878.46,308.23"/>
    </edge>
    <edge id=":riobranco010_0" function="internal">
        <lane id=":riobranco010_0_0" index="0" disallow="tram rail_urban rail rail_electric ship" speed="22.22" length="0.10" shape="894.29,260.27 894.29,260.27"/>
        <lane id=":riobranco010_0_1" index="1" disallow="tram rail_urban rail rail_electric ship" speed="22.22" length="0.10" shape="891.09,259.45 891.09,259.45"/>
    </edge>
    <edge id=":riobranco011_0" function="internal">
        <lane id=":riobranco011_0_0" index="0" disallow="tram rail_urban rail rail_electric ship" speed="22.22" length="8.11" shape="900.35,236.10 898.45,244.00"/>
        <lane id=":riobranco011_0_1" index="1" disallow="tram rail_urban rail rail_electric ship" speed="22.22" length="8.11" shape="897.15,235.32 895.25,243.19"/>
    </edge>
    <edge id=":riobranco011_2" function="internal">
        <lane id=":riobranco011_2_0" index="0" disallow="tram rail_urban rail rail_electric ship" speed="22.22" length="8.04" shape="893.15,235.75 894.32,237.86 895.19,239.37 895.56,240.94 895.25,243.19"/>
    </edge>
    <edge id=":riobranco012_0" function="internal">
        <lane id=":riobranco012_0_0" index="0" disallow="tram rail_urban rail rail_electric ship" speed="22.22" length="0.20" shape="904.87,219.80 904.80,220.10"/>
        <lane id=":riobranco012_0_1" index="1" disallow="tram rail_urban rail rail_electric ship" speed="22.22" length="0.20" shape="901.65,219.08 901.63,219.17"/>
    </edge>
    <edge id=":riobranco013_0" function="internal">
        <lane id=":riobranco013_0_0" index="0" disallow="tram rail_urban rail rail_electric ship" speed="22.22" length="9.51" shape="900.18,211.67 909.45,213.85"/>
        <lane id=":riobranco013_0_1" index="1" disallow="tram rail_urban rail rail_electric ship" speed="22.22" length="9.51" shape="899.43,214.88 908.69,217.06"/>
    </edge>
    <edge id=":riobranco013_2" function="internal">
        <lane id=":riobranco013_2_0" index="0" disallow="tram rail_urban rail rail_electric ship" speed="22.22" length="7.86" shape="899.43,214.88 902.11,215.71 903.93,216.73 904.88,217.96 904.97,219.38"/>
    </edge>
    <edge id=":riobranco013_3" function="internal">
        <lane id=":riobranco013_3_0" index="0" disallow="tram rail_urban rail rail_electric ship" speed="22.22" length="5.04" shape="899.43,214.88 900.70,215.38 901.52,216.18 901.86,217.27 901.75,218.65"/>
    </edge>
    <edge id=":riobranco102_0" function="internal">
        <lane id=":riobranco102_0_0" index="0" disallow="tram rail_urban rail rail_electric ship" speed="22.22" length="0.15" shape="790.10,505.61 790.14,505.47"/>
        <lane id=":riobranco102_0_1" index="1" disallow="tram rail_urban rail rail_electric ship" speed="22.22" length="0.15" shape="793.29,506.46 793.33,506.32"/>
        <lane id=":riobranco102_0_2" index="2" disallow="tram rail_urban rail rail_electric ship" speed="22.22" length="0.15" shape="796.48,507.32 796.52,507.17"/>
    </edge>
    <edge id=":riobranco103_0" function="internal">
        <lane id=":riobranco103_0_0" index="0" disallow="tram rail_urban rail rail_electric ship" speed="22.22" length="6.68" shape="788.93,498.11 790.33,498.08 791.51,497.36 792.48,495.97 793.23,493.89"/>
    </edge>
    <edge id=":riobranco103_1" function="internal">
        <lane id=":riobranco103_1_0" index="0" disallow="tram rail_urban rail rail_electric ship" speed="22.22" length="11.75" shape="788.27,501.34 791.05,501.40 793.33,500.32 795.12,498.10 796.42,494.75"/>
    </edge>
    <edge id=":riobranco103_2" function="internal">
        <lane id=":riobranco103_2_0" index="0" disallow="tram rail_urban rail rail_electric ship" speed="22.22" length="13.99" shape="788.27,501.34 792.28,501.38 795.07,500.25 797.85,499.17 801.83,499.38"/>
    </edge>
    <edge id=":riobranco103_3" function="internal">
        <lane id=":riobranco103_3_0" index="0" disallow="tram rail_urban rail rail_electric ship" speed="22.22" length="11.83" shape="790.18,505.33 793.23,493.89"/>
        <lane id=":riobranco103_3_1" index="1" disallow="tram rail_urban rail rail_electric ship" speed="22.22" length="11.83" shape="793.37,506.18 796.42,494.75"/>
        <lane id=":riobranco103_3_2" index="2" disallow="tram rail_urban rail rail_electric ship" speed="22.22" length="11.83" shape="796.56,507.02 799.61,495.60"/>
    </edge>
    <edge id=":riobranco103_6" function="internal">
        <lane id=":riobranco103_6_0" index="0" disallow="tram rail_urban rail rail_electric ship" speed="22.22" length="7.02" shape="796.56,507.02 797.36,504.79 798.37,503.30 799.59,502.57 801.01,502.58"/>
    </edge>
    <edge id=":riobranco103_7" function="internal">
        <lane id=":riobranco103_7_0" index="0" disallow="tram rail_urban rail rail_electric ship" speed="22.22" length="4.33" shape="796.56,507.02 796.99,506.18 797.74,505.70 798.81,505.56 800.20,505.78"/>
    </edge>
    <edge id=":riobranco104_0" function="internal">
        <lane id=":riobranco104_0_0" index="0" disallow="tram rail_urban rail rail_electric ship" speed="22.22" length="0.30" shape="804.75,450.83 804.83,450.54"/>
        <lane id=":riobranco104_0_1" index="1" disallow="tram rail_urban rail rail_electric ship" speed="22.22" length="0.30" shape="807.94,451.68 808.02,451.40"/>
        <lane id=":riobranco104_0_2" index="2" disallow="tram rail_urban rail rail_electric ship" speed="22.22" length="0.30" shape="811.13,452.54 811.21,452.25"/>
    </edge>
    <edge id=":riobranco105_0" function="internal">
        <lane id=":riobranco105_0_0" index="0" disallow="tram rail_urban rail rail_electric ship" speed="22.22" length="0.30" shape="813.49,418.11 813.57,417.82"/>
        <lane id=":riobranco105_0_1" index="1" disallow="tram rail_urban rail rail_electric ship" speed="22.22" length="0.30" shape="816.68,418.96 816.76,418.68"/>
        <lane id=":riobranco105_0_2" index="2" disallow="tram rail_urban rail rail_electric ship" speed="22.22" length="0.30" shape="819.87,419.82 819.95,419.53"/>
    </edge>
    <edge id=":riobranco106_0" function="internal">
        <lane id=":riobranco106_0_0" index="0" disallow="tram rail_urban rail rail_electric ship" speed="22.22" length="0.10" shape="818.05,401.08 818.05,401.08"/>
        <lane id=":riobranco106_0_1" index="1" disallow="tram rail_urban rail rail_electric ship" speed="22.22" length="0.10" shape="821.24,401.93 821.24,401.93"/>
        <lane id=":riobranco106_0_2" index="2" disallow="tram rail_urban rail rail_electric ship" speed="22.22" length="0.10" shape="824.43,402.78 824.43,402.78"/>
    </edge>
    <edge id=":riobranco107_0" function="internal">
        <lane id=":riobranco107_0_0" index="0" disallow="tram rail_urban rail rail_electric ship" speed="22.22" length="0.15" shape="825.60,372.87 825.64,372.73"/>
        <lane id=":riobranco107_0_1" index="1" disallow="tram rail_urban rail rail_electric ship" speed="22.22" length="0.15" shape="828.79,373.72 828.83,373.58"/>
        <lane id=":riobranco107_0_2" index="2" disallow="tram rail_urban rail rail_electric ship" speed="22.22" length="0.15" shape="831.98,374.58 832.02,374.43"/>
    </edge>
    <edge id=":riobranco108_0" function="internal">
        <lane id=":riobranco108_0_0" index="0" disallow="tram rail_urban rail rail_electric ship" speed="22.22" length="13.76" shape="836.14,372.80 832.11,371.42 829.40,369.62 827.04,367.83 824.07,366.44"/>
    </edge>
    <edge id=":riobranco108_1" function="internal">
        <lane id=":riobranco108_1_0" index="0" disallow="tram rail_urban rail rail_electric ship" speed="22.22" length="10.62" shape="836.81,369.57 834.05,368.58 832.32,366.94 831.63,364.67 831.98,361.75"/>
    </edge>
    <edge id=":riobranco108_2" function="internal">
        <lane id=":riobranco108_2_0" index="0" disallow="tram rail_urban rail rail_electric ship" speed="22.22" length="5.07" shape="837.47,366.34 836.16,365.86 835.33,365.08 835.00,364.00 835.17,362.61"/>
    </edge>
    <edge id=":riobranco108_3" function="internal">
        <lane id=":riobranco108_3_0" index="0" disallow="tram rail_urban rail rail_electric ship" speed="22.22" length="7.07" shape="825.68,372.59 826.10,370.22 825.98,368.41 825.30,367.15 824.07,366.44"/>
    </edge>
    <edge id=":riobranco108_4" function="internal">
        <lane id=":riobranco108_4_0" index="0" disallow="tram rail_urban rail rail_electric ship" speed="22.22" length="12.09" shape="825.68,372.59 828.79,360.90"/>
        <lane id=":riobranco108_4_1" index="1" disallow="tram rail_urban rail rail_electric ship" speed="22.22" length="12.09" shape="828.87,373.44 831.98,361.75"/>
        <lane id=":riobranco108_4_2" index="2" disallow="tram rail_urban rail rail_electric ship" speed="22.22" length="12.09" shape="832.06,374.28 835.17,362.61"/>
    </edge>
    <edge id=":riobranco109_0" function="internal">
        <lane id=":riobranco109_0_0" index="0" disallow="tram rail_urban rail rail_electric ship" speed="22.22" length="0.10" shape="838.19,325.77 838.19,325.77"/>
        <lane id=":riobranco109_0_1" index="1" disallow="tram rail_urban rail rail_electric ship" speed="22.22" length="0.10" shape="841.38,326.62 841.38,326.62"/>
        <lane id=":riobranco109_0_2" index="2" disallow="tram rail_urban rail rail_electric ship" speed="22.22" length="0.10" shape="844.57,327.47 844.57,327.47"/>
    </edge>
    <edge id=":riobranco110_0" function="internal">
        <lane id=":riobranco110_0_0" index="0" disallow="tram rail_urban rail rail_electric ship" speed="22.22" length="0.10" shape="848.44,287.45 848.44,287.45"/>
        <lane id=":riobranco110_0_1" index="1" disallow="tram rail_urban rail rail_electric ship" speed="22.22" length="0.10" shape="851.63,288.30 851.63,288.30"/>
        <lane id=":riobranco110_0_2" index="2" disallow="tram rail_urban rail rail_electric ship" speed="22.22" length="0.10" shape="854.82,289.15 854.82,289.15"/>
    </edge>
    <edge id=":riobranco111_0" function="internal">
        <lane id=":riobranco111_0_0" index="0" disallow="tram rail_urban rail rail_electric ship" speed="22.22" length="6.58" shape="862.88,233.42 864.58,227.07"/>
        <lane id=":riobranco111_0_1" index="1" disallow="tram rail_urban rail rail_electric ship" speed="22.22" length="6.58" shape="866.07,234.27 867.77,227.92"/>