<routes>
<vType accel="1.0" decel="5.0" id="Car" length="4" maxSpeed="100.0" sigma="0.0" />
<route id="routevalandro" edges=" valandro001tovalandro002 valandro002tovalandro003 valandro003tovalandro004 valandro004tovalandro005 valandro005tovalandro006 valandro006tovalandro007 valandro007tovalandro008
" />
<route id="routevenancio" edges=" venancio001tovenancio002 venancio002tovalandro003 valandro003tovenancio003 venancio003tofloriano008 floriano008tovenancio004 venancio004tovenancio005 venancio005tovenancio006 venancio006tovenancio007 venancio007toriobranco113 riobranco113tovenancio008 venancio008toriobranco001 riobranco001tovenancio009 venancio009tovenancio010 venancio010tovenancio011" />
<vehicle id="0" type="Car" route="routevenancio" depart="1" />
<vehicle id="1" type="Car" route="routevalandro" depart="3" />
<vehicle id="2" type="Car" route="routevenancio" depart="4" />
<vehicle id="3" type="Car" route="routevalandro" depart="6" />
<vehicle id="4" type="Car" route="routevalandro" depart="7" />
<vehicle id="5" type="Car" route="routevalandro" depart="8" />
<vehicle id="6" type="Car" route="routevenancio" depart="10" />
<vehicle id="7" type="Car" route="routevalandro" depart="12" />
<vehicle id="8" type="Car" route="routevenancio" depart="13" />
<vehicle id="9" type="Car" route="routevalandro" depart="15" />
<vehicle id="10" type="Car" route="routevalandro" depart="17" />
<vehicle id="11" type="Car" route="routevalandro" depart="19" />
<vehicle id="12" type="Car" route="routevenancio" depart="21" />
<vehicle id="13" type="Car" route="routevenancio" depart="23" />
<vehicle id="14" type="Car" route="routevenancio" depart="25" />
<vehicle id="15" type="Car" route="routevalandro" depart="26" />
<vehicle id="16" type="Car" route="routevenancio" depart="28" />
<vehicle id="17" type="Car" route="routevalandro" depart="29" />
<vehicle id="18" type="Car" route="routevenancio" depart="30" />
<vehicle id="19" type="Car" route="routevalandro" depart="32" />
<vehicle id="20" type="Car" route="routevenancio" depart="33" />
<vehicle id="21" type="Car" route="routevalandro" depart="35" />
<vehicle id="22" type="Car" route="routevenancio" depart="37" />
<vehicle id="23" type="Car" route="routevalandro" depart="38" />
<vehicle id="24" type="Car" route="routevalandro" depart="39" />
<vehicle id="25" type="Car" route="routevenancio" depart="41" />
<vehicle id="26" type="Car" route="routevenancio" depart="42" />
<vehicle id="27" type="Car" route="routevalandro" depart="44" />
<vehicle id="28" type="Car" route="routevalandro" depart="46" />
<vehicle id="29" type="Car" route="routevalandro" depart="48" />
<vehicle id="30" type="Car" route="routevalandro" depart="49" />
<vehicle id="31" type="Car" route="routevalandro" depart="51" />
<vehicle id="32" type="Car" route="routevalandro" depart="53" />
<vehicle id="33" type="Car" route="routevenancio" depart="54" />
<vehicle id="34" type="Car" route="routevalandro" depart="55" />
<vehicle id="35" type="Car" route="routevenancio" depart="56" />
<vehicle id="36" type="Car" route="routevalandro" depart="58" />
<vehicle id="37" type="Car" route="routevenancio" depart="59" />
<vehicle id="38" type="Car" route="routevalandro" depart="61" />
<vehicle id="39" type="Car" route="routevenancio" depart="62" />
<vehicle id="40" type="Car" route="routevenancio" depart="63" />
<vehicle id="41" type="Car" route="routevalandro" depart="64" />
<vehicle id="42" type="Car" route="routevalandro" depart="65" />
<vehicle id="43" type="Car" route="routevalandro" depart="66" />
<vehicle id="44" type="Car" route="routevalandro" depart="68" />
<vehicle id="45" type="Car" route="routevalandro" depart="70" />
<vehicle id="46" type="Car" route="routevenancio" depart="72" />
<vehicle id="47" type="Car" route="routevalandro" depart="74" />
<vehicle id="48" type="Car" route="routevalandro" depart="75" />
<vehicle id="49" type="Car" route="routevenancio" depart="76" />
<vehicle id="50" type="Car" route="routevalandro" depart="78" />
<vehicle id="51" type="Car" route="routevalandro" depart="79" />
<vehicle id="52" type="Car" route="routevenancio" depart="80" />
<vehicle id="53" type="Car" route="routevenancio" depart="82" />
<vehicle id="54" type="Car" route="routevalandro" depart="84" />
<vehicle id="55" type="Car" route="routevalandro" depart="86" />
<vehicle id="56" type="Car" route="routevalandro" depart="88" />
<vehicle id="57" type="Car" route="routevalandro" depart="90" />
<vehicle id="58" type="Car" route="routevalandro" depart="91" />
<vehicle id="59" type="Car" route="routevenancio" depart="92" />
<vehicle id="60" type="Car" route="routevenancio" depart="94" />
<vehicle id="61" type="Car" route="routevenancio" depart="96" />
<vehicle id="62" type="Car" route="routevalandro" depart="98" />
<vehicle id="63" type="Car" route="routevalandro" depart="99" />
<vehicle id="64" type="Car" route="routevenancio" depart="100" />
<vehicle id="65" type="Car" route="routevalandro" depart="101" />
<vehicle id="66" type="Car" route="routevalandro" depart="102" />
<vehicle id="67" type="Car" route="routevalandro" depart="103" />
<vehicle id="68" type="Car" route="routevenancio" depart="104" />
<vehicle id="69" type="Car" route="routevenancio" depart="106" />
<vehicle id="70" type="Car" route="routevenancio" depart="108" />
<vehicle id="71" type="Car" route="routevenancio" depart="109" />
<vehicle id="72" type="Car" route="routevenancio" depart="111" />
<vehicle id="73" type="Car" route="routevenancio" depart="113" />
<vehicle id="74" type="Car" route="routevalandro" depart="115" />
<vehicle id="75" type="Car" route="routevenancio" depart="117" />
<vehicle id="76" type="Car" route="routevenancio" depart="119" />
<vehicle id="77" type="Car" route="routevalandro" depart="120" />
<vehicle id="78" type="Car" route="routevalandro" depart="121" />
<vehicle id="79" type="Car" route="routevalandro" depart="123" />
<vehicle id="80" type="Car" route="routevenancio" depart="124" />
<vehicle id="81" type="Car" route="routevenancio" depart="125" />
<vehicle id="82" type="Car" route="routevenancio" depart="127" />
<vehicle id="83" type="Car" route="routevalandro" depart="128" />
<vehicle id="84" type="Car" route="routevalandro" depart="130" />
<vehicle id="85" type="Car" route="routevenancio" depart="132" />
<vehicle id="86" type="Car" route="routevenancio" depart="133" />
<vehicle id="87" type="Car" route="routevalandro" depart="135" />
<vehicle id="88" type="Car" route="routevenancio" depart="136" />
<vehicle id="89" type="Car" route="routevalandro" depart="137" />
<vehicle id="90" type="Car" route="routevalandro" depart="139" />
<vehicle id="91" type="Car" route="routevenancio" depart="140" />
<vehicle id="92" type="Car" route="routevalandro" depart="141" />
<vehicle id="93" type="Car" route="routevalandro" depart="143" />
<vehicle id="94" type="Car" route="routevalandro" depart="144" />
<vehicle id="95" type="Car" route="routevalandro" depart="145" />
<vehicle id="96" type="Car" route="routevalandro" depart="146" />
<vehicle id="97" type="Car" route="routevalandro" depart="148" />
<vehicle id="98" type="Car" route="routevenancio" depart="150" />
<vehicle id="99" type="Car" route="routevalandro" depart="151" />
<vehicle id="100" type="Car" route="routevenancio" depart="153" />
<vehicle id="101" type="Car" route="routevenancio" depart="154" />
<vehicle id="102" type="Car" route="routevenancio" depart="156" />
<vehicle id="103" type="Car" route="routevalandro" depart="157" />
<vehicle id="104" type="Car" route="routevenancio" depart="158" />
<vehicle id="105" type="Car" route="routevenancio" depart="159" />
<vehicle id="106" type="Car" route="routevenancio" depart="161" />
<vehicle id="107" type="Car" route="routevenancio" depart="163" />
<vehicle id="108" type="Car" route="routevenancio" depart="165" />
<vehicle id="109" type="Car" route="routevenancio" depart="167" />
<vehicle id="110" type="Car" route="routevalandro" depart="169" />
<vehicle id="111" type="Car" route="routevalandro" depart="171" />
<vehicle id="112" type="Car" route="routevalandro" depart="172" />
<vehicle id="113" type="Car" route="routevenancio" depart="173" />
<vehicle id="114" type="Car" route="routevalandro" depart="174" />
<vehicle id="115" type="Car" route="routevalandro" depart="175" />
<vehicle id="116" type="Car" route="routevenancio" depart="177" />
<vehicle id="117" type="Car" route="routevenancio" depart="179" />
<vehicle id="118" type="Car" route="routevalandro" depart="180" />
<vehicle id="119" type="Car" route="routevenancio" depart="181" />
<vehicle id="120" type="Car" route="routevalandro" depart="182" />
<vehicle id="121" type="Car" route="routevalandro" depart="184" />
<vehicle id="122" type="Car" route="routevalandro" depart="186" />
<vehicle id="123" type="Car" route="routevalandro" depart="187" />
<vehicle id="124" type="Car" route="routevalandro" depart="188" />
<vehicle id="125" type="Car" route="routevenancio" depart="189" />
<vehicle id="126" type="Car" route="routevalandro" depart="191" />
<vehicle id="127" type="Car" route="routevalandro" depart="193" />
<vehicle id="128" type="Car" route="routevenancio" depart="195" />
<vehicle id="129" type="Car" route="routevenancio" depart="196" />
<vehicle id="130" type="Car" route="routevalandro" depart="198" />
<vehicle id="131" type="Car" route="routevenancio" depart="199" />
<vehicle id="132" type="Car" route="routevenancio" depart="200" />
<vehicle id="133" type="Car" route="routevenancio" depart="201" />
<vehicle id="134" type="Car" route="routevalandro" depart="203" />
<vehicle id="135" type="Car" route="routevalandro" depart="205" />
<vehicle id="136" type="Car" route="routevenancio" depart="207" />
<vehicle id="137" type="Car" route="routevenancio" depart="208" />
<vehicle id="138" type="Car" route="routevenancio" depart="210" />
<vehicle id="139" type="Car" route="routevalandro" depart="212" />
<vehicle id="140" type="Car" route="routevenancio" depart="214" />
<vehicle id="141" type="Car" route="routevalandro" depart="216" />
<vehicle id="142" type="Car" route="routevalandro" depart="218" />
<vehicle id="143" type="Car" route="routevenancio" depart="219" />
<vehicle id="144" type="Car" route="routevenancio" depart="221" />
<vehicle id="145" type="Car" route="routevenancio" depart="222" />
<vehicle id="146" type="Car" route="routevalandro" depart="223" />
<vehicle id="147" type="Car" route="routevenancio" depart="225" />
<vehicle id="148" type="Car" route="routevalandro" depart="227" />
<vehicle id="149" type="Car" route="routevenancio" depart="229" />
<vehicle id="150" type="Car" route="routevenancio" depart="230" />
<vehicle id="151" type="Car" route="routevalandro" depart="232" />
<vehicle id="152" type="Car" route="routevenancio" depart="234" />
<vehicle id="153" type="Car" route="routevenancio" depart="236" />
<vehicle id="154" type="Car" route="routevalandro" depart="237" />
<vehicle id="155" type="Car" route="routevenancio" depart="239" />
<vehicle id="156" type="Car" route="routevalandro" depart="241" />
<vehicle id="157" type="Car" route="routevenancio" depart="242" />
<vehicle id="158" type="Car" route="routevenancio" depart="244" />
<vehicle id="159" type="Car" route="routevenancio" depart="246" />
<vehicle id="160" type="Car" route="routevenancio" depart="248" />
<vehicle id="161" type="Car" route="routevenancio" depart="250" />
<vehicle id="162" type="Car" route="routevenancio" depart="251" />
<vehicle id="163" type="Car" route="routevenancio" depart="253" />
<vehicle id="164" type="Car" route="routevenancio" depart="254" />
<vehicle id="165" type="Car" route="routevalandro" depart="256" />
<vehicle id="166" type="Car" route="routevenancio" depart="258" />
<vehicle id="167" type="Car" route="routevenancio" depart="259" />
<vehicle id="168" type="Car" route="routevalandro" depart="260" />
<vehicle id="169" type="Car" route="routevalandro" depart="262" />
<vehicle id="170" type="Car" route="routevenancio" depart="263" />
<vehicle id="171" type="Car" route="routevenancio" depart="264" />
<vehicle id="172" type="Car" route="routevenancio" depart="265" />
<vehicle id="173" type="Car" route="routevalandro" depart="267" />
<vehicle id="174" type="Car" route="routevenancio" depart="269" />
<vehicle id="175" type="Car" route="routevenancio" depart="271" />
<vehicle id="176" type="Car" route="routevenancio" depart="272" />
<vehicle id="177" type="Car" route="routevenancio" depart="274" />
<vehicle id="178" type="Car" route="routevenancio" depart="276" />
<vehicle id="179" type="Car" route="routevenancio" depart="278" />
<vehicle id="180" type="Car" route="routevalandro" depart="279" />
<vehicle id="181" type="Car" route="routevenancio" depart="281" />
<vehicle id="182" type="Car" route="routevalandro" depart="282" />
<vehicle id="183" type="Car" route="routevalandro" depart="283" />
<vehicle id="184" type="Car" route="routevalandro" depart="284" />
<vehicle id="185" type="Car" route="routevalandro" depart="285" />
<vehicle id="186" type="Car" route="routevalandro" depart="287" />
<vehicle id="187" type="Car" route="routevalandro" depart="288" />
<vehicle id="188" type="Car" route="routevalandro" depart="289" />
<vehicle id="189" type="Car" route="routevalandro" depart="291" />
<vehicle id="190" type="Car" route="routevalandro" depart="292" />
<vehicle id="191" type="Car" route="routevenancio" depart="294" />
<vehicle id="192" type="Car" route="routevenancio" depart="296" />
<vehicle id="193" type="Car" route="routevenancio" depart="298" />
<vehicle id="194" type="Car" route="routevalandro" depart="299" />
<vehicle id="195" type="Car" route="routevalandro" depart="301" />
<vehicle id="196" type="Car" route="routevalandro" depart="302" />
<vehicle id="197" type="Car" route="routevenancio" depart="304" />
<vehicle id="198" type="Car" route="routevenancio" depart="306" />
<vehicle id="199" type="Car" route="routevenancio" depart="308" />
<vehicle id="200" type="Car" route="routevenancio" depart="310" />
<vehicle id="201" type="Car" route="routevalandro" depart="312" />
<vehicle id="202" type="Car" route="routevenancio" depart="314" />
<vehicle id="203" type="Car" route="routevalandro" depart="316" />
<vehicle id="204" type="Car" route="routevalandro" depart="317" />
<vehicle id="205" type="Car" route="routevenancio" depart="319" />
<vehicle id="206" type="Car" route="routevenancio" depart="321" />
<vehicle id="207" type="Car" route="routevenancio" depart="322" />
<vehicle id="208" type="Car" route="routevalandro" depart="324" />
<vehicle id="209" type="Car" route="routevalandro" depart="325" />
<vehicle id="210" type="Car" route="routevenancio" depart="326" />
<vehicle id="211" type="Car" route="routevenancio" depart="328" />
<vehicle id="212" type="Car" route="routevalandro" depart="329" />
<vehicle id="213" type="Car" route="routevenancio" depart="330" />
<vehicle id="214" type="Car" route="routevenancio" depart="332" />
<vehicle id="215" type="Car" route="routevenancio" depart="334" />
<vehicle id="216" type="Car" route="routevalandro" depart="335" />
<vehicle id="217" type="Car" route="routevenancio" depart="336" />
<vehicle id="218" type="Car" route="routevenancio" depart="338" />
<vehicle id="219" type="Car" route="routevalandro" depart="340" />
<vehicle id="220" type="Car" route="routevalandro" depart="342" />
<vehicle id="221" type="Car" route="routevenancio" depart="343" />
<vehicle id="222" type="Car" route="routevalandro" depart="344" />
<vehicle id="223" type="Car" route="routevenancio" depart="346" />
<vehicle id="224" type="Car" route="routevalandro" depart="347" />
<vehicle id="225" type="Car" route="routevalandro" depart="349" />
<vehicle id="226" type="Car" route="routevalandro" depart="350" />
<vehicle id="227" type="Car" route="routevenancio" depart="352" />
<vehicle id="228" type="Car" route="routevenancio" depart="353" />
<vehicle id="229" type="Car" route="routevalandro" depart="355" />
<vehicle id="230" type="Car" route="routevenancio" depart="356" />
<vehicle id="231" type="Car" route="routevenancio" depart="358" />
<vehicle id="232" type="Car" route="routevenancio" depart="360" />
<vehicle id="233" type="Car" route="routevalandro" depart="362" />
<vehicle id="234" type="Car" route="routevenancio" depart="363" />
<vehicle id="235" type="Car" route="routevenancio" depart="365" />
<vehicle id="236" type="Car" route="routevalandro" depart="367" />
<vehicle id="237" type="Car" route="routevalandro" depart="368" />
<vehicle id="238" type="Car" route="routevenancio" depart="370" />
<vehicle id="239" type="Car" route="routevenancio" depart="371" />
<vehicle id="240" type="Car" route="routevenancio" depart="373" />
<vehicle id="241" type="Car" route="routevalandro" depart="374" />
<vehicle id="242" type="Car" route="routevenancio" depart="376" />
<vehicle id="243" type="Car" route="routevenancio" depart="377" />
<vehicle id="244" type="Car" route="routevalandro" depart="378" />
<vehicle id="245" type="Car" route="routevenancio" depart="379" />
<vehicle id="246" type="Car" route="routevenancio" depart="381" />
<vehicle id="247" type="Car" route="routevenancio" depart="382" />
<vehicle id="248" type="Car" route="routevenancio" depart="383" />
<vehicle id="249" type="Car" route="routevalandro" depart="384" />
<vehicle id="250" type="Car" route="routevenancio" depart="385" />
<vehicle id="251" type="Car" route="routevenancio" depart="387" />
<vehicle id="252" type="Car" route="routevalandro" depart="389" />
<vehicle id="253" type="Car" route="routevalandro" depart="391" />
<vehicle id="254" type="Car" route="routevenancio" depart="393" />
<vehicle id="255" type="Car" route="routevenancio" depart="395" />
<vehicle id="256" type="Car" route="routevalandro" depart="397" />
<vehicle id="257" type="Car" route="routevalandro" depart="398" />
<vehicle id="258" type="Car" route="routevenancio" depart="399" />
<vehicle id="259" type="Car" route="routevalandro" depart="401" />
<vehicle id="260" type="Car" route="routevalandro" depart="402" />
<vehicle id="261" type="Car" route="routevalandro" depart="403" />
<vehicle id="262" type="Car" route="routevalandro" depart="405" />
<vehicle id="263" type="Car" route="routevenancio" depart="406" />
<vehicle id="264" type="Car" route="routevalandro" depart="407" />
<vehicle id="265" type="Car" route="routevalandro" depart="409" />
<vehicle id="266" type="Car" route="routevalandro" depart="411" />
<vehicle id="267" type="Car" route="routevalandro" depart="412" />
<vehicle id="268" type="Car" route="routevenancio" depart="413" />
<vehicle id="269" type="Car" route="routevalandro" depart="414" />
<vehicle id="270" type="Car" route="routevalandro" depart="415" />
<vehicle id="271" type="Car" route="routevalandro" depart="416" />
<vehicle id="272" type="Car" route="routevenancio" depart="418" />
<vehicle id="273" type="Car" route="routevalandro" depart="420" />
<vehicle id="274" type="Car" route="routevalandro" depart="421" />
<vehicle id="275" type="Car" route="routevenancio" depart="423" />
<vehicle id="276" type="Car" route="routevenancio" depart="425" />
<vehicle id="277" type="Car" route="routevalandro" depart="426" />
<vehicle id="278" type="Car" route="routevalandro" depart="428" />
<vehicle id="279" type="Car" route="routevalandro" depart="430" />
<vehicle id="280" type="Car" route="routevenancio" depart="431" />
<vehicle id="281" type="Car" route="routevalandro" depart="433" />
<vehicle id="282" type="Car" route="routevenancio" depart="435" />
<vehicle id="283" type="Car" route="routevalandro" depart="436" />
<vehicle id="284" type="Car" route="routevalandro" depart="438" />
<vehicle id="285" type="Car" route="routevalandro" depart="439" />
<vehicle id="286" type="Car" route="routevalandro" depart="441" />
<vehicle id="287" type="Car" route="routevenancio" depart="443" />
<vehicle id="288" type="Car" route="routevenancio" depart="444" />
<vehicle id="289" type="Car" route="routevenancio" depart="445" />
<vehicle id="290" type="Car" route="routevenancio" depart="447" />
<vehicle id="291" type="Car" route="routevalandro" depart="448" />
<vehicle id="292" type="Car" route="routevenancio" depart="449" />
<vehicle id="293" type="Car" route="routevenancio" depart="451" />
<vehicle id="294" type="Car" route="routevenancio" depart="452" />
<vehicle id="295" type="Car" route="routevenancio" depart="453" />
<vehicle id="296" type="Car" route="routevenancio" depart="455" />
<vehicle id="297" type="Car" route="routevenancio" depart="457" />
<vehicle id="298" type="Car" route="routevenancio" depart="459" />
<vehicle id="299" type="Car" route="routevalandro" depart="461" />
<vehicle id="300" type="Car" route="routevalandro" depart="463" />
<vehicle id="301" type="Car" route="routevalandro" depart="465" />
<vehicle id="302" type="Car" route="routevalandro" depart="466" />
<vehicle id="303" type="Car" route="routevalandro" depart="467" />
<vehicle id="304" type="Car" route="routevenancio" depart="468" />
<vehicle id="305" type="Car" route="routevalandro" depart="470" />
<vehicle id="306" type="Car" route="routevenancio" depart="471" />
<vehicle id="307" type="Car" route="routevalandro" depart="472" />
<vehicle id="308" type="Car" route="routevenancio" depart="473" />
<vehicle id="309" type="Car" route="routevenancio" depart="475" />
<vehicle id="310" type="Car" route="routevenancio" depart="476" />
<vehicle id="311" type="Car" route="routevalandro" depart="478" />
<vehicle id="312" type="Car" route="routevenancio" depart="480" />
<vehicle id="313" type="Car" route="routevalandro" depart="482" />
<vehicle id="314" type="Car" route="routevenancio" depart="483" />
<vehicle id="315" type="Car" route="routevalandro" depart="485" />
<vehicle id="316" type="Car" route="routevalandro" depart="486" />
<vehicle id="317" type="Car" route="routevenancio" depart="488" />
<vehicle id="318" type="Car" route="routevalandro" depart="490" />
<vehicle id="319" type="Car" route="routevenancio" depart="492" />
<vehicle id="320" type="Car" route="routevenancio" depart="493" />
<vehicle id="321" type="Car" route="routevalandro" depart="495" />
<vehicle id="322" type="Car" route="routevalandro" depart="497" />
<vehicle id="323" type="Car" route="routevalandro" depart="499" />
<vehicle id="324" type="Car" route="routevenancio" depart="501" />
<vehicle id="325" type="Car" route="routevalandro" depart="502" />
<vehicle id="326" type="Car" route="routevenancio" depart="503" />
<vehicle id="327" type="Car" route="routevalandro" depart="505" />
<vehicle id="328" type="Car" route="routevenancio" depart="507" />
<vehicle id="329" type="Car" route="routevenancio" depart="509" />
<vehicle id="330" type="Car" route="routevalandro" depart="511" />
<vehicle id="331" type="Car" route="routevenancio" depart="513" />
<vehicle id="332" type="Car" route="routevalandro" depart="515" />
<vehicle id="333" type="Car" route="routevenancio" depart="516" />
<vehicle id="334" type="Car" route="routevalandro" depart="517" />
<vehicle id="335" type="Car" route="routevenancio" depart="518" />
<vehicle id="336" type="Car" route="routevenancio" depart="520" />
<vehicle id="337" type="Car" route="routevalandro" depart="521" />
<vehicle id="338" type="Car" route="routevalandro" depart="522" />
<vehicle id="339" type="Car" route="routevalandro" depart="524" />
<vehicle id="340" type="Car" route="routevalandro" depart="526" />
<vehicle id="341" type="Car" route="routevalandro" depart="528" />
<vehicle id="342" type="Car" route="routevalandro" depart="529" />
<vehicle id="343" type="Car" route="routevalandro" depart="530" />
<vehicle id="344" type="Car" route="routevalandro" depart="531" />
<vehicle id="345" type="Car" route="routevalandro" depart="532" />
<vehicle id="346" type="Car" route="routevalandro" depart="533" />
<vehicle id="347" type="Car" route="routevalandro" depart="535" />
<vehicle id="348" type="Car" route="routevalandro" depart="536" />
<vehicle id="349" type="Car" route="routevalandro" depart="537" />
<vehicle id="350" type="Car" route="routevalandro" depart="539" />
<vehicle id="351" type="Car" route="routevalandro" depart="540" />
<vehicle id="352" type="Car" route="routevalandro" depart="541" />
<vehicle id="353" type="Car" route="routevenancio" depart="543" />
<vehicle id="354" type="Car" route="routevalandro" depart="544" />
<vehicle id="355" type="Car" route="routevalandro" depart="545" />
<vehicle id="356" type="Car" route="routevalandro" depart="547" />
<vehicle id="357" type="Car" route="routevenancio" depart="548" />
<vehicle id="358" type="Car" route="routevalandro" depart="549" />
<vehicle id="359" type="Car" route="routevalandro" depart="551" />
<vehicle id="360" type="Car" route="routevenancio" depart="553" />
<vehicle id="361" type="Car" route="routevalandro" depart="554" />
<vehicle id="362" type="Car" route="routevalandro" depart="555" />
<vehicle id="363" type="Car" route="routevalandro" depart="556" />
<vehicle id="364" type="Car" route="routevalandro" depart="558" />
<vehicle id="365" type="Car" route="routevenancio" depart="559" />
<vehicle id="366" type="Car" route="routevenancio" depart="560" />
<vehicle id="367" type="Car" route="routevenancio" depart="562" />
<vehicle id="368" type="Car" route="routevenancio" depart="563" />
<vehicle id="369" type="Car" route="routevenancio" depart="565" />
<vehicle id="370" type="Car" route="routevenancio" depart="566" />
<vehicle id="371" type="Car" route="routevenancio" depart="567" />
<vehicle id="372" type="Car" route="routevalandro" depart="569" />
<vehicle id="373" type="Car" route="routevalandro" depart="571" />
<vehicle id="374" type="Car" route="routevalandro" depart="573" />
<vehicle id="375" type="Car" route="routevalandro" depart="575" />
<vehicle id="376" type="Car" route="routevalandro" depart="577" />
<vehicle id="377" type="Car" route="routevalandro" depart="578" />
<vehicle id="378" type="Car" route="routevenancio" depart="579" />
<vehicle id="379" type="Car" route="routevenancio" depart="581" />
<vehicle id="380" type="Car" route="routevalandro" depart="583" />
<vehicle id="381" type="Car" route="routevenancio" depart="584" />
<vehicle id="382" type="Car" route="routevalandro" depart="586" />
<vehicle id="383" type="Car" route="routevalandro" depart="588" />
<vehicle id="384" type="Car" route="routevenancio" depart="589" />
<vehicle id="385" type="Car" route="routevenancio" depart="591" />
<vehicle id="386" type="Car" route="routevenancio" depart="592" />
<vehicle id="387" type="Car" route="routevenancio" depart="594" />
<vehicle id="388" type="Car" route="routevenancio" depart="595" />
<vehicle id="389" type="Car" route="routevenancio" depart="597" />
<vehicle id="390" type="Car" route="routevalandro" depart="599" />
<vehicle id="391" type="Car" route="routevalandro" depart="600" />
<vehicle id="392" type="Car" route="routevalandro" depart="601" />
<vehicle id="393" type="Car" route="routevalandro" depart="602" />
<vehicle id="394" type="Car" route="routevenancio" depart="604" />
<vehicle id="395" type="Car" route="routevalandro" depart="606" />
<vehicle id="396" type="Car" route="routevenancio" depart="608" />
<vehicle id="397" type="Car" route="routevenancio" depart="610" />
<vehicle id="398" type="Car" route="routevalandro" depart="612" />
<vehicle id="399" type="Car" route="routevalandro" depart="613" />
<vehicle id="400" type="Car" route="routevenancio" depart="615" />
<vehicle id="401" type="Car" route="routevenancio" depart="616" />
<vehicle id="402" type="Car" route="routevenancio" depart="618" />
<vehicle id="403" type="Car" route="routevenancio" depart="619" />
<vehicle id="404" type="Car" route="routevenancio" depart="620" />
<vehicle id="405" type="Car" route="routevenancio" depart="621" />
<vehicle id="406" type="Car" route="routevenancio" depart="623" />
<vehicle id="407" type="Car" route="routevenancio" depart="625" />
<vehicle id="408" type="Car" route="routevalandro" depart="626" />
<vehicle id="409" type="Car" route="routevalandro" depart="628" />
<vehicle id="410" type="Car" route="routevenancio" depart="629" />
<vehicle id="411" type="Car" route="routevalandro" depart="631" />
<vehicle id="412" type="Car" route="routevalandro" depart="632" />
<vehicle id="413" type="Car" route="routevenancio" depart="634" />
<vehicle id="414" type="Car" route="routevalandro" depart="635" />
<vehicle id="415" type="Car" route="routevalandro" depart="636" />
<vehicle id="416" type="Car" route="routevenancio" depart="637" />
<vehicle id="417" type="Car" route="routevenancio" depart="639" />
<vehicle id="418" type="Car" route="routevenancio" depart="641" />
<vehicle id="419" type="Car" route="routevenancio" depart="642" />
<vehicle id="420" type="Car" route="routevenancio" depart="643" />
<vehicle id="421" type="Car" route="routevenancio" depart="645" />
<vehicle id="422" type="Car" route="routevenancio" depart="646" />
<vehicle id="423" type="Car" route="routevalandro" depart="648" />
<vehicle id="424" type="Car" route="routevenancio" depart="650" />
<vehicle id="425" type="Car" route="routevenancio" depart="652" />
<vehicle id="426" type="Car" route="routevenancio" depart="654" />
<vehicle id="427" type="Car" route="routevalandro" depart="656" />
<vehicle id="428" type="Car" route="routevenancio" depart="657" />
<vehicle id="429" type="Car" route="routevenancio" depart="659" />
<vehicle id="430" type="Car" route="routevenancio" depart="660" />
<vehicle id="431" type="Car" route="routevenancio" depart="661" />
<vehicle id="432" type="Car" route="routevenancio" depart="663" />
<vehicle id="433" type="Car" route="routevalandro" depart="665" />
<vehicle id="434" type="Car" route="routevenancio" depart="666" />
<vehicle id="435" type="Car" route="routevalandro" depart="667" />
<vehicle id="436" type="Car" route="routevenancio" depart="668" />
<vehicle id="437" type="Car" route="routevalandro" depart="670" />
<vehicle id="438" type="Car" route="routevalandro" depart="672" />
<vehicle id="439" type="Car" route="routevenancio" depart="674" />