<routes>
<vType accel="1.0" decel="5.0" id="Car" length="2.0" maxSpeed="100.0" sigma="0.0" />
<route id="routefloriano" edges=" floriano001tofloriano002 floriano002tofloriano003 floriano003tofloriano004 floriano004tofloriano005 floriano005tofloriano006 floriano006tofloriano007 floriano007tofloriano008 floriano008tofloriano009
" />
<route id="routevalandro" edges=" valandro001tovalandro002 valandro002tovalandro003 valandro003tovalandro004 valandro004tovalandro005 valandro005tovalandro006 valandro006tovalandro007 valandro007tovalandro008
" />
<route id="routeriobranco01" edges=" riobranco101toriobranco102 riobranco102toriobranco103 riobranco103toriobranco104 riobranco104toriobranco105 riobranco105toriobranco106 riobranco106toriobranco107 riobranco107toriobranco108 riobranco108toriobranco109 riobranco109toriobranco110 riobranco110toriobranco111 riobranco111toriobranco112 riobranco112toriobranco113 riobranco113toriobranco114
" />
<route id="routeriobranco02" edges=" venancio001tovenancio002 venancio002tovalandro003 valandro003tovenancio003 venancio003tofloriano008 floriano008tovenancio004 venancio004tovenancio005 venancio005tovenancio006 venancio006tovenancio007 venancio007toriobranco113 riobranco113tovenancio008 venancio008toriobranco001 riobranco001toriobranco002 riobranco002toriobranco003 riobranco003toriobranco004 riobranco004toriobranco005 riobranco005toriobranco006 riobranco006toriobranco007 riobranco007toriobranco008 riobranco008toriobranco009 riobranco009toriobranco010 riobranco010toriobranco011 riobranco011toriobranco012 riobranco012toriobranco013 
" />
<route id="routevenancio" edges=" venancio001tovenancio002 venancio002tovalandro003 valandro003tovenancio003 venancio003tofloriano008 floriano008tovenancio004 venancio004tovenancio005 venancio005tovenancio006 venancio006tovenancio007 venancio007toriobranco113 riobranco113tovenancio008 venancio008toriobranco001 riobranco001tovenancio009 venancio009tovenancio010 venancio010tovenancio011
" />
<route id="routeandradas" edges=" andradas001toandradas002 andradas002toandradas003 andradas003toandradas004 andradas004toandradas005 andradas005toandradas006 andradas006toandradas007 andradas007toriobranco006 riobranco006toandradas008 andradas008toandradas009 andradas009toriobranco108 riobranco108toandradas010 andradas010tofloriano005 floriano005toandradas011 andradas011tovalandro005 valandro005toandradas012" />
<vehicle id="0" type="Car" route="routefloriano" depart="0" />
<vehicle id="1" type="Car" route="routefloriano" depart="1" />
<vehicle id="2" type="Car" route="routevenancio" depart="2" />
<vehicle id="3" type="Car" route="routeriobranco02" depart="4" />
<vehicle id="4" type="Car" route="routeriobranco01" depart="5" />
<vehicle id="5" type="Car" route="routevenancio" depart="7" />
<vehicle id="6" type="Car" route="routevalandro" depart="8" />
<vehicle id="7" type="Car" route="routevalandro" depart="10" />
<vehicle id="8" type="Car" route="routevalandro" depart="11" />
<vehicle id="9" type="Car" route="routevalandro" depart="13" />
<vehicle id="10" type="Car" route="routevalandro" depart="14" />
<vehicle id="11" type="Car" route="routefloriano" depart="15" />
<vehicle id="12" type="Car" route="routefloriano" depart="16" />
<vehicle id="13" type="Car" route="routeandradas" depart="17" />
<vehicle id="14" type="Car" route="routeandradas" depart="18" />
<vehicle id="15" type="Car" route="routevalandro" depart="19" />
<vehicle id="16" type="Car" route="routeriobranco02" depart="20" />
<vehicle id="17" type="Car" route="routevalandro" depart="22" />
<vehicle id="18" type="Car" route="routeandradas" depart="23" />
<vehicle id="19" type="Car" route="routevalandro" depart="25" />
<vehicle id="20" type="Car" route="routeriobranco01" depart="27" />
<vehicle id="21" type="Car" route="routevenancio" depart="29" />
<vehicle id="22" type="Car" route="routevenancio" depart="30" />
<vehicle id="23" type="Car" route="routeriobranco01" depart="32" />
<vehicle id="24" type="Car" route="routeandradas" depart="33" />
<vehicle id="25" type="Car" route="routeandradas" depart="34" />
<vehicle id="26" type="Car" route="routeriobranco01" depart="35" />
<vehicle id="27" type="Car" route="routevenancio" depart="36" />
<vehicle id="28" type="Car" route="routevalandro" depart="37" />
<vehicle id="29" type="Car" route="routeandradas" depart="39" />
<vehicle id="30" type="Car" route="routevalandro" depart="41" />
<vehicle id="31" type="Car" route="routeandradas" depart="42" />
<vehicle id="32" type="Car" route="routevalandro" depart="44" />
<vehicle id="33" type="Car" route="routefloriano" depart="45" />
<vehicle id="34" type="Car" route="routeriobranco01" depart="47" />
<vehicle id="35" type="Car" route="routeriobranco02" depart="49" />
<vehicle id="36" type="Car" route="routefloriano" depart="50" />
<vehicle id="37" type="Car" route="routevalandro" depart="51" />
<vehicle id="38" type="Car" route="routevalandro" depart="52" />
<vehicle id="39" type="Car" route="routevenancio" depart="54" />
<vehicle id="40" type="Car" route="routeriobranco01" depart="56" />
<vehicle id="41" type="Car" route="routeriobranco01" depart="58" />
<vehicle id="42" type="Car" route="routeriobranco01" depart="59" />
<vehicle id="43" type="Car" route="routeandradas" depart="61" />
<vehicle id="44" type="Car" route="routeriobranco02" depart="62" />
<vehicle id="45" type="Car" route="routefloriano" depart="64" />
<vehicle id="46" type="Car" route="routeandradas" depart="66" />
<vehicle id="47" type="Car" route="routeriobranco02" depart="68" />
<vehicle id="48" type="Car" route="routevenancio" depart="70" />
<vehicle id="49" type="Car" route="routevalandro" depart="72" />
<vehicle id="50" type="Car" route="routevalandro" depart="73" />
<vehicle id="51" type="Car" route="routevalandro" depart="74" />
<vehicle id="52" type="Car" route="routeriobranco02" depart="75" />
<vehicle id="53" type="Car" route="routeandradas" depart="76" />
<vehicle id="54" type="Car" route="routevenancio" depart="77" />
<vehicle id="55" type="Car" route="routeriobranco02" depart="79" />
<vehicle id="56" type="Car" route="routevenancio" depart="80" />
<vehicle id="57" type="Car" route="routevalandro" depart="82" />
<vehicle id="58" type="Car" route="routeandradas" depart="84" />
<vehicle id="59" type="Car" route="routeandradas" depart="86" />
<vehicle id="60" type="Car" route="routeandradas" depart="87" />
<vehicle id="61" type="Car" route="routeandradas" depart="88" />
<vehicle id="62" type="Car" route="routefloriano" depart="90" />
<vehicle id="63" type="Car" route="routevalandro" depart="92" />
<vehicle id="64" type="Car" route="routeriobranco01" depart="94" />
<vehicle id="65" type="Car" route="routeandradas" depart="96" />
<vehicle id="66" type="Car" route="routevalandro" depart="97" />
<vehicle id="67" type="Car" route="routeriobranco01" depart="99" />
<vehicle id="68" type="Car" route="routeriobranco01" depart="100" />
<vehicle id="69" type="Car" route="routeriobranco01" depart="101" />
<vehicle id="70" type="Car" route="routeandradas" depart="102" />
<vehicle id="71" type="Car" route="routeriobranco01" depart="104" />
<vehicle id="72" type="Car" route="routevenancio" depart="106" />
<vehicle id="73" type="Car" route="routefloriano" depart="107" />
<vehicle id="74" type="Car" route="routefloriano" depart="109" />
<vehicle id="75" type="Car" route="routevalandro" depart="110" />
<vehicle id="76" type="Car" route="routevalandro" depart="111" />
<vehicle id="77" type="Car" route="routevalandro" depart="113" />
<vehicle id="78" type="Car" route="routevenancio" depart="114" />
<vehicle id="79" type="Car" route="routeriobranco01" depart="115" />
<vehicle id="80" type="Car" route="routeriobranco02" depart="116" />
<vehicle id="81" type="Car" route="routeandradas" depart="117" />
<vehicle id="82" type="Car" route="routeriobranco01" depart="119" />
<vehicle id="83" type="Car" route="routefloriano" depart="120" />
<vehicle id="84" type="Car" route="routeandradas" depart="121" />
<vehicle id="85" type="Car" route="routevenancio" depart="123" />
<vehicle id="86" type="Car" route="routevenancio" depart="124" />
<vehicle id="87" type="Car" route="routevenancio" depart="125" />
<vehicle id="88" type="Car" route="routeriobranco01" depart="126" />
<vehicle id="89" type="Car" route="routefloriano" depart="128" />
<vehicle id="90" type="Car" route="routeandradas" depart="129" />
<vehicle id="91" type="Car" route="routeandradas" depart="130" />
<vehicle id="92" type="Car" route="routevalandro" depart="132" />
<vehicle id="93" type="Car" route="routevalandro" depart="133" />
<vehicle id="94" type="Car" route="routeriobranco01" depart="134" />
<vehicle id="95" type="Car" route="routeriobranco01" depart="136" />
<vehicle id="96" type="Car" route="routevalandro" depart="137" />
<vehicle id="97" type="Car" route="routeandradas" depart="138" />
<vehicle id="98" type="Car" route="routeriobranco01" depart="140" />
<vehicle id="99" type="Car" route="routefloriano" depart="141" />
<vehicle id="100" type="Car" route="routeriobranco02" depart="142" />
<vehicle id="101" type="Car" route="routevenancio" depart="144" />
<vehicle id="102" type="Car" route="routeriobranco02" depart="146" />
<vehicle id="103" type="Car" route="routeriobranco02" depart="148" />
<vehicle id="104" type="Car" route="routevenancio" depart="150" />
<vehicle id="105" type="Car" route="routefloriano" depart="152" />
<vehicle id="106" type="Car" route="routeriobranco02" depart="154" />
<vehicle id="107" type="Car" route="routeriobranco02" depart="156" />
<vehicle id="108" type="Car" route="routeriobranco02" depart="157" />
<vehicle id="109" type="Car" route="routeriobranco01" depart="159" />
<vehicle id="110" type="Car" route="routevalandro" depart="160" />
<vehicle id="111" type="Car" route="routeriobranco01" depart="161" />
<vehicle id="112" type="Car" route="routefloriano" depart="162" />
<vehicle id="113" type="Car" route="routevalandro" depart="164" />
<vehicle id="114" type="Car" route="routefloriano" depart="165" />
<vehicle id="115" type="Car" route="routevenancio" depart="166" />
<vehicle id="116" type="Car" route="routevenancio" depart="167" />
<vehicle id="117" type="Car" route="routevenancio" depart="169" />
<vehicle id="118" type="Car" route="routefloriano" depart="171" />
<vehicle id="119" type="Car" route="routevenancio" depart="172" />
<vehicle id="120" type="Car" route="routefloriano" depart="174" />
<vehicle id="121" type="Car" route="routeriobranco01" depart="175" />
<vehicle id="122" type="Car" route="routevalandro" depart="177" />
<vehicle id="123" type="Car" route="routeandradas" depart="178" />
<vehicle id="124" type="Car" route="routeriobranco01" depart="180" />
<vehicle id="125" type="Car" route="routeandradas" depart="182" />
<vehicle id="126" type="Car" route="routeriobranco02" depart="183" />
<vehicle id="127" type="Car" route="routeandradas" depart="185" />
<vehicle id="128" type="Car" route="routevenancio" depart="187" />
<vehicle id="129" type="Car" route="routeandradas" depart="188" />
<vehicle id="130" type="Car" route="routeriobranco02" depart="190" />
<vehicle id="131" type="Car" route="routeriobranco02" depart="192" />
<vehicle id="132" type="Car" route="routeriobranco02" depart="193" />
<vehicle id="133" type="Car" route="routevalandro" depart="195" />
<vehicle id="134" type="Car" route="routevalandro" depart="196" />
<vehicle id="135" type="Car" route="routeandradas" depart="198" />
<vehicle id="136" type="Car" route="routevenancio" depart="200" />
<vehicle id="137" type="Car" route="routefloriano" depart="202" />
<vehicle id="138" type="Car" route="routeriobranco01" depart="203" />
<vehicle id="139" type="Car" route="routefloriano" depart="205" />
<vehicle id="140" type="Car" route="routeriobranco02" depart="206" />
<vehicle id="141" type="Car" route="routefloriano" depart="208" />
<vehicle id="142" type="Car" route="routeriobranco01" depart="210" />
<vehicle id="143" type="Car" route="routevenancio" depart="212" />
<vehicle id="144" type="Car" route="routefloriano" depart="214" />
<vehicle id="145" type="Car" route="routevalandro" depart="215" />
<vehicle id="146" type="Car" route="routefloriano" depart="217" />
<vehicle id="147" type="Car" route="routevenancio" depart="219" />
<vehicle id="148" type="Car" route="routeriobranco01" depart="221" />
<vehicle id="149" type="Car" route="routeandradas" depart="223" />
<vehicle id="150" type="Car" route="routevalandro" depart="224" />
<vehicle id="151" type="Car" route="routeriobranco01" depart="226" />
<vehicle id="152" type="Car" route="routeriobranco01" depart="227" />
<vehicle id="153" type="Car" route="routevalandro" depart="229" />
<vehicle id="154" type="Car" route="routeandradas" depart="230" />
<vehicle id="155" type="Car" route="routefloriano" depart="231" />
<vehicle id="156" type="Car" route="routeriobranco02" depart="232" />
<vehicle id="157" type="Car" route="routevenancio" depart="233" />
<vehicle id="158" type="Car" route="routevalandro" depart="234" />
<vehicle id="159" type="Car" route="routevenancio" depart="236" />
<vehicle id="160" type="Car" route="routeandradas" depart="237" />
<vehicle id="161" type="Car" route="routeriobranco01" depart="238" />
<vehicle id="162" type="Car" route="routeriobranco01" depart="239" />
<vehicle id="163" type="Car" route="routevalandro" depart="240" />
<vehicle id="164" type="Car" route="routeriobranco02" depart="241" />
<vehicle id="165" type="Car" route="routeandradas" depart="242" />
<vehicle id="166" type="Car" route="routevenancio" depart="244" />
<vehicle id="167" type="Car" route="routevalandro" depart="245" />
<vehicle id="168" type="Car" route="routefloriano" depart="246" />
<vehicle id="169" type="Car" route="routeandradas" depart="247" />
<vehicle id="170" type="Car" route="routeriobranco01" depart="249" />
<vehicle id="171" type="Car" route="routevenancio" depart="250" />
<vehicle id="172" type="Car" route="routevenancio" depart="251" />
<vehicle id="173" type="Car" route="routeandradas" depart="252" />
<vehicle id="174" type="Car" route="routefloriano" depart="253" />
<vehicle id="175" type="Car" route="routeriobranco02" depart="255" />
<vehicle id="176" type="Car" route="routevalandro" depart="256" />
<vehicle id="177" type="Car" route="routevalandro" depart="257" />
<vehicle id="178" type="Car" route="routevalandro" depart="258" />
<vehicle id="179" type="Car" route="routeriobranco02" depart="259" />
<vehicle id="180" type="Car" route="routeriobranco02" depart="261" />
<vehicle id="181" type="Car" route="routefloriano" depart="262" />
<vehicle id="182" type="Car" route="routeriobranco02" depart="264" />
<vehicle id="183" type="Car" route="routeandradas" depart="266" />
<vehicle id="184" type="Car" route="routeandradas" depart="268" />
<vehicle id="185" type="Car" route="routeandradas" depart="270" />
<vehicle id="186" type="Car" route="routevenancio" depart="272" />
<vehicle id="187" type="Car" route="routevalandro" depart="274" />
<vehicle id="188" type="Car" route="routefloriano" depart="276" />
<vehicle id="189" type="Car" route="routeriobranco01" depart="277" />
<vehicle id="190" type="Car" route="routeriobranco01" depart="278" />
<vehicle id="191" type="Car" route="routevalandro" depart="280" />
<vehicle id="192" type="Car" route="routevenancio" depart="281" />
<vehicle id="193" type="Car" route="routefloriano" depart="283" />
<vehicle id="194" type="Car" route="routevalandro" depart="284" />
<vehicle id="195" type="Car" route="routefloriano" depart="285" />
<vehicle id="196" type="Car" route="routefloriano" depart="286" />
<vehicle id="197" type="Car" route="routevenancio" depart="287" />
<vehicle id="198" type="Car" route="routeandradas" depart="288" />
<vehicle id="199" type="Car" route="routevalandro" depart="289" />
<vehicle id="200" type="Car" route="routevalandro" depart="291" />
<vehicle id="201" type="Car" route="routevalandro" depart="293" />
<vehicle id="202" type="Car" route="routeriobranco02" depart="295" />
<vehicle id="203" type="Car" route="routevalandro" depart="297" />
<vehicle id="204" type="Car" route="routevenancio" depart="299" />
<vehicle id="205" type="Car" route="routefloriano" depart="300" />
<vehicle id="206" type="Car" route="routeriobranco02" depart="302" />
<vehicle id="207" type="Car" route="routefloriano" depart="304" />
<vehicle id="208" type="Car" route="routefloriano" depart="305" />
<vehicle id="209" type="Car" route="routefloriano" depart="306" />
<vehicle id="210" type="Car" route="routeriobranco02" depart="308" />
<vehicle id="211" type="Car" route="routeandradas" depart="310" />
<vehicle id="212" type="Car" route="routefloriano" depart="311" />
<vehicle id="213" type="Car" route="routeandradas" depart="313" />
<vehicle id="214" type="Car" route="routefloriano" depart="314" />
<vehicle id="215" type="Car" route="routeandradas" depart="315" />
<vehicle id="216" type="Car" route="routeriobranco01" depart="317" />
<vehicle id="217" type="Car" route="routeriobranco01" depart="319" />
<vehicle id="218" type="Car" route="routefloriano" depart="321" />
<vehicle id="219" type="Car" route="routeandradas" depart="322" />
<vehicle id="220" type="Car" route="routefloriano" depart="323" />
<vehicle id="221" type="Car" route="routefloriano" depart="325" />
<vehicle id="222" type="Car" route="routeriobranco02" depart="326" />
<vehicle id="223" type="Car" route="routeandradas" depart="328" />
<vehicle id="224" type="Car" route="routefloriano" depart="330" />
<vehicle id="225" type="Car" route="routeandradas" depart="331" />
<vehicle id="226" type="Car" route="routeriobranco01" depart="333" />
<vehicle id="227" type="Car" route="routefloriano" depart="334" />
<vehicle id="228" type="Car" route="routeriobranco02" depart="335" />
<vehicle id="229" type="Car" route="routeriobranco02" depart="336" />
<vehicle id="230" type="Car" route="routeandradas" depart="337" />
<vehicle id="231" type="Car" route="routeriobranco02" depart="338" />
<vehicle id="232" type="Car" route="routevenancio" depart="339" />
<vehicle id="233" type="Car" route="routefloriano" depart="340" />
<vehicle id="234" type="Car" route="routeriobranco02" depart="342" />
<vehicle id="235" type="Car" route="routeandradas" depart="344" />
<vehicle id="236" type="Car" route="routeriobranco01" depart="345" />
<vehicle id="237" type="Car" route="routeriobranco01" depart="346" />
<vehicle id="238" type="Car" route="routeriobranco01" depart="348" />
<vehicle id="239" type="Car" route="routevalandro" depart="350" />
<vehicle id="240" type="Car" route="routevenancio" depart="351" />
<vehicle id="241" type="Car" route="routefloriano" depart="353" />
<vehicle id="242" type="Car" route="routevalandro" depart="355" />
<vehicle id="243" type="Car" route="routevenancio" depart="356" />
<vehicle id="244" type="Car" route="routeriobranco02" depart="358" />
<vehicle id="245" type="Car" route="routevenancio" depart="359" />
<vehicle id="246" type="Car" route="routefloriano" depart="360" />
<vehicle id="247" type="Car" route="routeriobranco01" depart="361" />
<vehicle id="248" type="Car" route="routevenancio" depart="363" />
<vehicle id="249" type="Car" route="routeriobranco01" depart="364" />
<vehicle id="250" type="Car" route="routeriobranco02" depart="365" />
<vehicle id="251" type="Car" route="routeandradas" depart="367" />
<vehicle id="252" type="Car" route="routeriobranco01" depart="369" />
<vehicle id="253" type="Car" route="routeriobranco02" depart="371" />
<vehicle id="254" type="Car" route="routeriobranco01" depart="373" />
<vehicle id="255" type="Car" route="routeriobranco01" depart="375" />
<vehicle id="256" type="Car" route="routeandradas" depart="376" />
<vehicle id="257" type="Car" route="routeriobranco01" depart="377" />
<vehicle id="258" type="Car" route="routevenancio" depart="379" />
<vehicle id="259" type="Car" route="routefloriano" depart="380" />
<vehicle id="260" type="Car" route="routeriobranco02" depart="381" />
<vehicle id="261" type="Car" route="routefloriano" depart="382" />
<vehicle id="262" type="Car" route="routevenancio" depart="383" />
<vehicle id="263" type="Car" route="routeriobranco01" depart="384" />
<vehicle id="264" type="Car" route="routevenancio" depart="386" />
<vehicle id="265" type="Car" route="routeriobranco02" depart="387" />
<vehicle id="266" type="Car" route="routeriobranco02" depart="388" />
<vehicle id="267" type="Car" route="routeandradas" depart="390" />
<vehicle id="268" type="Car" route="routeriobranco02" depart="391" />
<vehicle id="269" type="Car" route="routeandradas" depart="392" />
<vehicle id="270" type="Car" route="routevenancio" depart="393" />
<vehicle id="271" type="Car" route="routeandradas" depart="395" />
<vehicle id="272" type="Car" route="routeriobranco01" depart="396" />
<vehicle id="273" type="Car" route="routevenancio" depart="397" />
<vehicle id="274" type="Car" route="routevenancio" depart="398" />
<vehicle id="275" type="Car" route="routeriobranco01" depart="399" />
<vehicle id="276" type="Car" route="routevalandro" depart="401" />
<vehicle id="277" type="Car" route="routevalandro" depart="403" />
<vehicle id="278" type="Car" route="routeriobranco02" depart="405" />
<vehicle id="279" type="Car" route="routeriobranco01" depart="407" />
<vehicle id="280" type="Car" route="routevalandro" depart="409" />
<vehicle id="281" type="Car" route="routefloriano" depart="411" />
<vehicle id="282" type="Car" route="routevalandro" depart="413" />
<vehicle id="283" type="Car" route="routevalandro" depart="415" />
<vehicle id="284" type="Car" route="routevenancio" depart="416" />
<vehicle id="285" type="Car" route="routeriobranco01" depart="418" />
<vehicle id="286" type="Car" route="routevenancio" depart="420" />
<vehicle id="287" type="Car" route="routeriobranco02" depart="421" />
<vehicle id="288" type="Car" route="routeriobranco02" depart="422" />
<vehicle id="289" type="Car" route="routeriobranco02" depart="424" />
<vehicle id="290" type="Car" route="routeriobranco01" depart="425" />
<vehicle id="291" type="Car" route="routeriobranco01" depart="426" />
<vehicle id="292" type="Car" route="routeandradas" depart="428" />
<vehicle id="293" type="Car" route="routevenancio" depart="430" />
<vehicle id="294" type="Car" route="routeandradas" depart="432" />
<vehicle id="295" type="Car" route="routeandradas" depart="433" />
<vehicle id="296" type="Car" route="routeriobranco01" depart="435" />
<vehicle id="297" type="Car" route="routeriobranco01" depart="437" />
<vehicle id="298" type="Car" route="routevenancio" depart="439" />
<vehicle id="299" type="Car" route="routeandradas" depart="440" />
<vehicle id="300" type="Car" route="routefloriano" depart="442" />
<vehicle id="301" type="Car" route="routefloriano" depart="444" />
<vehicle id="302" type="Car" route="routeandradas" depart="445" />
<vehicle id="303" type="Car" route="routefloriano" depart="447" />
<vehicle id="304" type="Car" route="routeriobranco02" depart="448" />
<vehicle id="305" type="Car" route="routefloriano" depart="450" />
<vehicle id="306" type="Car" route="routevalandro" depart="451" />
<vehicle id="307" type="Car" route="routeriobranco01" depart="452" />
<vehicle id="308" type="Car" route="routeriobranco02" depart="453" />
<vehicle id="309" type="Car" route="routeandradas" depart="455" />
<vehicle id="310" type="Car" route="routevalandro" depart="457" />
<vehicle id="311" type="Car" route="routeandradas" depart="458" />
<vehicle id="312" type="Car" route="routeriobranco01" depart="460" />
<vehicle id="313" type="Car" route="routevenancio" depart="461" />
<vehicle id="314" type="Car" route="routeriobranco02" depart="462" />
<vehicle id="315" type="Car" route="routeriobranco01" depart="463" />
<vehicle id="316" type="Car" route="routeriobranco02" depart="464" />
<vehicle id="317" type="Car" route="routefloriano" depart="466" />
<vehicle id="318" type="Car" route="routeriobranco01" depart="467" />
<vehicle id="319" type="Car" route="routevalandro" depart="468" />
<vehicle id="320" type="Car" route="routevenancio" depart="469" />
<vehicle id="321" type="Car" route="routevenancio" depart="470" />
<vehicle id="322" type="Car" route="routefloriano" depart="471" />
<vehicle id="323" type="Car" route="routefloriano" depart="473" />
<vehicle id="324" type="Car" route="routeriobranco01" depart="474" />
<vehicle id="325" type="Car" route="routefloriano" depart="476" />
<vehicle id="326" type="Car" route="routeriobranco02" depart="478" />
<vehicle id="327" type="Car" route="routeriobranco01" depart="480" />
<vehicle id="328" type="Car" route="routeriobranco02" depart="481" />
<vehicle id="329" type="Car" route="routeriobranco01" depart="482" />
<vehicle id="330" type="Car" route="routeriobranco01" depart="484" />
<vehicle id="331" type="Car" route="routevalandro" depart="486" />
<vehicle id="332" type="Car" route="routeandradas" depart="487" />
<vehicle id="333" type="Car" route="routeriobranco02" depart="488" />
<vehicle id="334" type="Car" route="routeriobranco02" depart="490" />
<vehicle id="335" type="Car" route="routeriobranco02" depart="491" />
<vehicle id="336" type="Car" route="routeandradas" depart="493" />
<vehicle id="337" type="Car" route="routevalandro" depart="494" />
<vehicle id="338" type="Car" route="routeriobranco01" depart="496" />
<vehicle id="339" type="Car" route="routeandradas" depart="498" />
<vehicle id="340" type="Car" route="routevalandro" depart="499" />
<vehicle id="341" type="Car" route="routeriobranco02" depart="501" />
<vehicle id="342" type="Car" route="routeriobranco01" depart="503" />
<vehicle id="343" type="Car" route="routeandradas" depart="505" />
<vehicle id="344" type="Car" route="routevenancio" depart="507" />
<vehicle id="345" type="Car" route="routeriobranco02" depart="509" />
<vehicle id="346" type="Car" route="routeriobranco02" depart="511" />
<vehicle id="347" type="Car" route="routevenancio" depart="512" />
<vehicle id="348" type="Car" route="routeriobranco02" depart="514" />
<vehicle id="349" type="Car" route="routeriobranco01" depart="516" />
<vehicle id="350" type="Car" route="routeandradas" depart="518" />
<vehicle id="351" type="Car" route="routevenancio" depart="519" />
<vehicle id="352" type="Car" route="routevenancio" depart="520" />
<vehicle id="353" type="Car" route="routevenancio" depart="521" />
<vehicle id="354" type="Car" route="routefloriano" depart="522" />
<vehicle id="355" type="Car" route="routevenancio" depart="523" />
<vehicle id="356" type="Car" route="routevenancio" depart="524" />
<vehicle id="357" type="Car" route="routevenancio" depart="525" />
<vehicle id="358" type="Car" route="routeriobranco02" depart="527" />
<vehicle id="359" type="Car" route="routevalandro" depart="529" />
<vehicle id="360" type="Car" route="routeandradas" depart="530" />
<vehicle id="361" type="Car" route="routefloriano" depart="532" />
<vehicle id="362" type="Car" route="routevalandro" depart="534" />
<vehicle id="363" type="Car" route="routeandradas" depart="535" />
<vehicle id="364" type="Car" route="routeandradas" depart="536" />
<vehicle id="365" type="Car" route="routeriobranco01" depart="538" />
<vehicle id="366" type="Car" route="routeriobranco02" depart="540" />
<vehicle id="367" type="Car" route="routeandradas" depart="541" />
<vehicle id="368" type="Car" route="routeriobranco02" depart="542" />
<vehicle id="369" type="Car" route="routevalandro" depart="544" />
<vehicle id="370" type="Car" route="routeriobranco01" depart="545" />
<vehicle id="371" type="Car" route="routeriobranco02" depart="547" />
<vehicle id="372" type="Car" route="routeriobranco01" depart="548" />
<vehicle id="373" type="Car" route="routeriobranco01" depart="549" />
<vehicle id="374" type="Car" route="routefloriano" depart="551" />
<vehicle id="375" type="Car" route="routeandradas" depart="553" />
<vehicle id="376" type="Car" route="routevalandro" depart="555" />
<vehicle id="377" type="Car" route="routevalandro" depart="556" />
<vehicle id="378" type="Car" route="routefloriano" depart="558" />
<vehicle id="379" type="Car" route="routeandradas" depart="560" />
<vehicle id="380" type="Car" route="routevalandro" depart="562" />
<vehicle id="381" type="Car" route="routevalandro" depart="563" />
<vehicle id="382" type="Car" route="routeriobranco01" depart="564" />
<vehicle id="383" type="Car" route="routevalandro" depart="566" />
<vehicle id="384" type="Car" route="routeriobranco01" depart="568" />
<vehicle id="385" type="Car" route="routeandradas" depart="570" />
<vehicle id="386" type="Car" route="routevalandro" depart="571" />
<vehicle id="387" type="Car" route="routeriobranco02" depart="572" />
<vehicle id="388" type="Car" route="routevalandro" depart="574" />
<vehicle id="389" type="Car" route="routeriobranco02" depart="575" />
<vehicle id="390" type="Car" route="routevenancio" depart="577" />
<vehicle id="391" type="Car" route="routeandradas" depart="579" />
<vehicle id="392" type="Car" route="routeandradas" depart="580" />
<vehicle id="393" type="Car" route="routeandradas" depart="582" />
<vehicle id="394" type="Car" route="routeriobranco01" depart="583" />
<vehicle id="395" type="Car" route="routeriobranco02" depart="584" />
<vehicle id="396" type="Car" route="routeriobranco02" depart="585" />
<vehicle id="397" type="Car" route="routevenancio" depart="587" />
<vehicle id="398" type="Car" route="routevenancio" depart="588" />
<vehicle id="399" type="Car" route="routevalandro" depart="590" />
<vehicle id="400" type="Car" route="routevenancio" depart="592" />
<vehicle id="401" type="Car" route="routevalandro" depart="594" />
<vehicle id="402" type="Car" route="routeriobranco01" depart="595" />
<vehicle id="403" type="Car" route="routeriobranco02" depart="596" />
<vehicle id="404" type="Car" route="routevalandro" depart="597" />
<vehicle id="405" type="Car" route="routeandradas" depart="598" />
<vehicle id="406" type="Car" route="routeandradas" depart="599" />
<vehicle id="407" type="Car" route="routevenancio" depart="601" />