<routes>
<vType accel="1.0" decel="5.0" id="Car" length="2.0" maxSpeed="100.0" sigma="0.0" />
<route id="routefloriano" edges="floriano001tofloriano002 floriano002tofloriano003 floriano003tofloriano004 floriano004tofloriano005 floriano005tofloriano006 floriano006tofloriano007 floriano007tofloriano008 floriano008tofloriano009" />
<vehicle id="0" type="Car" route="routefloriano" depart="0" />
<vehicle id="1" type="Car" route="routefloriano" depart="2" />
<vehicle id="2" type="Car" route="routefloriano" depart="3" />
<vehicle id="3" type="Car" route="routefloriano" depart="4" />
<vehicle id="4" type="Car" route="routefloriano" depart="6" />
<vehicle id="5" type="Car" route="routefloriano" depart="8" />
<vehicle id="6" type="Car" route="routefloriano" depart="9" />
<vehicle id="7" type="Car" route="routefloriano" depart="10" />
<vehicle id="8" type="Car" route="routefloriano" depart="12" />
<vehicle id="9" type="Car" route="routefloriano" depart="13" />
<vehicle id="10" type="Car" route="routefloriano" depart="14" />
<vehicle id="11" type="Car" route="routefloriano" depart="16" />
<vehicle id="12" type="Car" route="routefloriano" depart="18" />
<vehicle id="13" type="Car" route="routefloriano" depart="19" />
<vehicle id="14" type="Car" route="routefloriano" depart="21" />
<vehicle id="15" type="Car" route="routefloriano" depart="22" />
<vehicle id="16" type="Car" route="routefloriano" depart="24" />
<vehicle id="17" type="Car" route="routefloriano" depart="25" />
<vehicle id="18" type="Car" route="routefloriano" depart="26" />
<vehicle id="19" type="Car" route="routefloriano" depart="28" />
<vehicle id="20" type="Car" route="routefloriano" depart="30" />
<vehicle id="21" type="Car" route="routefloriano" depart="32" />
<vehicle id="22" type="Car" route="routefloriano" depart="34" />
<vehicle id="23" type="Car" route="routefloriano" depart="35" />
<vehicle id="24" type="Car" route="routefloriano" depart="36" />
<vehicle id="25" type="Car" route="routefloriano" depart="38" />
<vehicle id="26" type="Car" route="routefloriano" depart="39" />
<vehicle id="27" type="Car" route="routefloriano" depart="40" />
<vehicle id="28" type="Car" route="routefloriano" depart="42" />
<vehicle id="29" type="Car" route="routefloriano" depart="44" />
<vehicle id="30" type="Car" route="routefloriano" depart="45" />
<vehicle id="31" type="Car" route="routefloriano" depart="47" />
<vehicle id="32" type="Car" route="routefloriano" depart="49" />
<vehicle id="33" type="Car" route="routefloriano" depart="50" />
<vehicle id="34" type="Car" route="routefloriano" depart="51" />
<vehicle id="35" type="Car" route="routefloriano" depart="53" />
<vehicle id="36" type="Car" route="routefloriano" depart="54" />
<vehicle id="37" type="Car" route="routefloriano" depart="56" />
<vehicle id="38" type="Car" route="routefloriano" depart="58" />
<vehicle id="39" type="Car" route="routefloriano" depart="60" />
<vehicle id="40" type="Car" route="routefloriano" depart="62" />
<vehicle id="41" type="Car" route="routefloriano" depart="64" />
<vehicle id="42" type="Car" route="routefloriano" depart="65" />
<vehicle id="43" type="Car" route="routefloriano" depart="67" />
<vehicle id="44" type="Car" route="routefloriano" depart="69" />
<vehicle id="45" type="Car" route="routefloriano" depart="71" />
<vehicle id="46" type="Car" route="routefloriano" depart="72" />
<vehicle id="47" type="Car" route="routefloriano" depart="73" />
<vehicle id="48" type="Car" route="routefloriano" depart="74" />
<vehicle id="49" type="Car" route="routefloriano" depart="76" />
<vehicle id="50" type="Car" route="routefloriano" depart="78" />
<vehicle id="51" type="Car" route="routefloriano" depart="79" />
<vehicle id="52" type="Car" route="routefloriano" depart="81" />
<vehicle id="53" type="Car" route="routefloriano" depart="83" />
<vehicle id="54" type="Car" route="routefloriano" depart="85" />
<vehicle id="55" type="Car" route="routefloriano" depart="86" />
<vehicle id="56" type="Car" route="routefloriano" depart="88" />
<vehicle id="57" type="Car" route="routefloriano" depart="90" />
<vehicle id="58" type="Car" route="routefloriano" depart="91" />
<vehicle id="59" type="Car" route="routefloriano" depart="93" />
<vehicle id="60" type="Car" route="routefloriano" depart="95" />
<vehicle id="61" type="Car" route="routefloriano" depart="96" />
<vehicle id="62" type="Car" route="routefloriano" depart="98" />
<vehicle id="63" type="Car" route="routefloriano" depart="100" />
<vehicle id="64" type="Car" route="routefloriano" depart="102" />
<vehicle id="65" type="Car" route="routefloriano" depart="103" />
<vehicle id="66" type="Car" route="routefloriano" depart="104" />
<vehicle id="67" type="Car" route="routefloriano" depart="106" />
<vehicle id="68" type="Car" route="routefloriano" depart="108" />
<vehicle id="69" type="Car" route="routefloriano" depart="110" />
<vehicle id="70" type="Car" route="routefloriano" depart="111" />
<vehicle id="71" type="Car" route="routefloriano" depart="112" />
<vehicle id="72" type="Car" route="routefloriano" depart="114" />
<vehicle id="73" type="Car" route="routefloriano" depart="116" />
<vehicle id="74" type="Car" route="routefloriano" depart="118" />
<vehicle id="75" type="Car" route="routefloriano" depart="120" />
<vehicle id="76" type="Car" route="routefloriano" depart="121" />
<vehicle id="77" type="Car" route="routefloriano" depart="122" />
<vehicle id="78" type="Car" route="routefloriano" depart="124" />
<vehicle id="79" type="Car" route="routefloriano" depart="126" />
<vehicle id="80" type="Car" route="routefloriano" depart="128" />
<vehicle id="81" type="Car" route="routefloriano" depart="129" />
<vehicle id="82" type="Car" route="routefloriano" depart="130" />
<vehicle id="83" type="Car" route="routefloriano" depart="131" />
<vehicle id="84" type="Car" route="routefloriano" depart="132" />
<vehicle id="85" type="Car" route="routefloriano" depart="133" />
<vehicle id="86" type="Car" route="routefloriano" depart="135" />
<vehicle id="87" type="Car" route="routefloriano" depart="136" />
<vehicle id="88" type="Car" route="routefloriano" depart="137" />
<vehicle id="89" type="Car" route="routefloriano" depart="138" />
<vehicle id="90" type="Car" route="routefloriano" depart="140" />
<vehicle id="91" type="Car" route="routefloriano" depart="141" />
<vehicle id="92" type="Car" route="routefloriano" depart="143" />
<vehicle id="93" type="Car" route="routefloriano" depart="144" />
<vehicle id="94" type="Car" route="routefloriano" depart="146" />
<vehicle id="95" type="Car" route="routefloriano" depart="147" />
<vehicle id="96" type="Car" route="routefloriano" depart="149" />
<vehicle id="97" type="Car" route="routefloriano" depart="150" />
<vehicle id="98" type="Car" route="routefloriano" depart="151" />
<vehicle id="99" type="Car" route="routefloriano" depart="153" />
<vehicle id="100" type="Car" route="routefloriano" depart="154" />
<vehicle id="101" type="Car" route="routefloriano" depart="155" />
<vehicle id="102" type="Car" route="routefloriano" depart="157" />
<vehicle id="103" type="Car" route="routefloriano" depart="159" />
<vehicle id="104" type="Car" route="routefloriano" depart="161" />
<vehicle id="105" type="Car" route="routefloriano" depart="163" />
<vehicle id="106" type="Car" route="routefloriano" depart="164" />
<vehicle id="107" type="Car" route="routefloriano" depart="166" />
<vehicle id="108" type="Car" route="routefloriano" depart="167" />
<vehicle id="109" type="Car" route="routefloriano" depart="169" />
<vehicle id="110" type="Car" route="routefloriano" depart="171" />
<vehicle id="111" type="Car" route="routefloriano" depart="172" />
<vehicle id="112" type="Car" route="routefloriano" depart="173" />
<vehicle id="113" type="Car" route="routefloriano" depart="174" />
<vehicle id="114" type="Car" route="routefloriano" depart="176" />
<vehicle id="115" type="Car" route="routefloriano" depart="178" />
<vehicle id="116" type="Car" route="routefloriano" depart="180" />
<vehicle id="117" type="Car" route="routefloriano" depart="182" />
<vehicle id="118" type="Car" route="routefloriano" depart="183" />
<vehicle id="119" type="Car" route="routefloriano" depart="185" />
<vehicle id="120" type="Car" route="routefloriano" depart="187" />
<vehicle id="121" type="Car" route="routefloriano" depart="189" />
<vehicle id="122" type="Car" route="routefloriano" depart="191" />
<vehicle id="123" type="Car" route="routefloriano" depart="192" />
<vehicle id="124" type="Car" route="routefloriano" depart="193" />
<vehicle id="125" type="Car" route="routefloriano" depart="195" />
<vehicle id="126" type="Car" route="routefloriano" depart="196" />
<vehicle id="127" type="Car" route="routefloriano" depart="197" />
<vehicle id="128" type="Car" route="routefloriano" depart="199" />
<vehicle id="129" type="Car" route="routefloriano" depart="201" />
<vehicle id="130" type="Car" route="routefloriano" depart="202" />
<vehicle id="131" type="Car" route="routefloriano" depart="203" />
<vehicle id="132" type="Car" route="routefloriano" depart="204" />
<vehicle id="133" type="Car" route="routefloriano" depart="206" />
<vehicle id="134" type="Car" route="routefloriano" depart="207" />
<vehicle id="135" type="Car" route="routefloriano" depart="209" />
<vehicle id="136" type="Car" route="routefloriano" depart="211" />
<vehicle id="137" type="Car" route="routefloriano" depart="212" />
<vehicle id="138" type="Car" route="routefloriano" depart="213" />
<vehicle id="139" type="Car" route="routefloriano" depart="214" />
<vehicle id="140" type="Car" route="routefloriano" depart="215" />
<vehicle id="141" type="Car" route="routefloriano" depart="216" />
<vehicle id="142" type="Car" route="routefloriano" depart="218" />
<vehicle id="143" type="Car" route="routefloriano" depart="219" />
<vehicle id="144" type="Car" route="routefloriano" depart="221" />
<vehicle id="145" type="Car" route="routefloriano" depart="223" />
<vehicle id="146" type="Car" route="routefloriano" depart="225" />
<vehicle id="147" type="Car" route="routefloriano" depart="226" />
<vehicle id="148" type="Car" route="routefloriano" depart="228" />
<vehicle id="149" type="Car" route="routefloriano" depart="230" />
</routes>
