<routes>
<vType accel="1.0" decel="5.0" id="Car" length="4" maxSpeed="100.0" sigma="0.0" />
<route id="routeandradas" edges=" andradas001toandradas002 andradas002toandradas003 andradas003toandradas004 andradas004toandradas005 andradas005toandradas006 andradas006toandradas007 andradas007toriobranco006 riobranco006toandradas008 andradas008toandradas009 andradas009toriobranco108 riobranco108toandradas010 andradas010tofloriano005 floriano005toandradas011 andradas011tovalandro005 valandro005toandradas012
" />
<route id="routevenancio" edges=" venancio001tovenancio002 venancio002tovalandro003 valandro003tovenancio003 venancio003tofloriano008 floriano008tovenancio004 venancio004tovenancio005 venancio005tovenancio006 venancio006tovenancio007 venancio007toriobranco113 riobranco113tovenancio008 venancio008toriobranco001 riobranco001tovenancio009 venancio009tovenancio010 venancio010tovenancio011
" />
<route id="routefloriano" edges=" floriano001tofloriano002 floriano002tofloriano003 floriano003tofloriano004 floriano004tofloriano005 floriano005tofloriano006 floriano006tofloriano007 floriano007tofloriano008 floriano008tofloriano009
" />
<route id="routesilva" edges=" silva001tosilva002 silva002tovalandro006 valandro006tosilva003 silva003tosilva004 silva004tofloriano003 floriano003tosilva005 silva005toriobranco103 riobranco103tosilva006 silva006toriobranco002 riobranco002tosilva007 silva007tosilva008 silva008tosilva009
" />
<route id="routevalandro" edges=" valandro001tovalandro002 valandro002tovalandro003 valandro003tovalandro004 valandro004tovalandro005 valandro005tovalandro006 valandro006tovalandro007 valandro007tovalandro008" />
<vehicle id="0" type="Car" route="routeandradas" depart="0" color="1,0,0" />
<vehicle id="3" type="Car" route="routesilva" depart="0" />
<vehicle id="1" type="Car" route="routevenancio" depart="1" />
<vehicle id="2" type="Car" route="routefloriano" depart="1" />
<vehicle id="4" type="Car" route="routevalandro" depart="1" />
<vehicle id="6" type="Car" route="routevenancio" depart="2" />
<vehicle id="7" type="Car" route="routefloriano" depart="2" />
<vehicle id="5" type="Car" route="routeandradas" depart="3" />
<vehicle id="8" type="Car" route="routesilva" depart="3" />
<vehicle id="9" type="Car" route="routevalandro" depart="3" />
<vehicle id="10" type="Car" route="routeandradas" depart="4" />
<vehicle id="11" type="Car" route="routevenancio" depart="4" />
<vehicle id="13" type="Car" route="routesilva" depart="4" />
<vehicle id="12" type="Car" route="routefloriano" depart="5" />
<vehicle id="14" type="Car" route="routevalandro" depart="5" />
<vehicle id="15" type="Car" route="routeandradas" depart="6" />
<vehicle id="16" type="Car" route="routevenancio" depart="6" />
<vehicle id="18" type="Car" route="routesilva" depart="6" />
<vehicle id="17" type="Car" route="routefloriano" depart="7" />
<vehicle id="19" type="Car" route="routevalandro" depart="7" />
<vehicle id="20" type="Car" route="routeandradas" depart="8" />
<vehicle id="21" type="Car" route="routevenancio" depart="8" />
<vehicle id="22" type="Car" route="routefloriano" depart="8" />
<vehicle id="24" type="Car" route="routevalandro" depart="8" />
<vehicle id="23" type="Car" route="routesilva" depart="9" />
<vehicle id="27" type="Car" route="routefloriano" depart="9" />
<vehicle id="29" type="Car" route="routevalandro" depart="9" />
<vehicle id="25" type="Car" route="routeandradas" depart="10" />
<vehicle id="26" type="Car" route="routevenancio" depart="10" />
<vehicle id="28" type="Car" route="routesilva" depart="10" />
<vehicle id="30" type="Car" route="routeandradas" depart="10" />
<vehicle id="34" type="Car" route="routevalandro" depart="10" />
<vehicle id="31" type="Car" route="routevenancio" depart="11" />
<vehicle id="32" type="Car" route="routefloriano" depart="11" />
<vehicle id="33" type="Car" route="routesilva" depart="11" />
<vehicle id="35" type="Car" route="routeandradas" depart="11" />
<vehicle id="36" type="Car" route="routevenancio" depart="11" />
<vehicle id="37" type="Car" route="routefloriano" depart="11" />
<vehicle id="38" type="Car" route="routesilva" depart="11" />
<vehicle id="39" type="Car" route="routevalandro" depart="12" />
<vehicle id="40" type="Car" route="routeandradas" depart="13" />
<vehicle id="43" type="Car" route="routesilva" depart="13" />
<vehicle id="41" type="Car" route="routevenancio" depart="14" />
<vehicle id="42" type="Car" route="routefloriano" depart="14" />
<vehicle id="44" type="Car" route="routevalandro" depart="14" />
<vehicle id="46" type="Car" route="routevenancio" depart="15" />
<vehicle id="47" type="Car" route="routefloriano" depart="15" />
<vehicle id="48" type="Car" route="routesilva" depart="15" />
<vehicle id="49" type="Car" route="routevalandro" depart="15" />
<vehicle id="45" type="Car" route="routeandradas" depart="16" />
<vehicle id="54" type="Car" route="routevalandro" depart="16" />
<vehicle id="50" type="Car" route="routeandradas" depart="17" />
<vehicle id="51" type="Car" route="routevenancio" depart="17" />
<vehicle id="52" type="Car" route="routefloriano" depart="17" />
<vehicle id="53" type="Car" route="routesilva" depart="17" />
<vehicle id="55" type="Car" route="routeandradas" depart="17" />
<vehicle id="56" type="Car" route="routevenancio" depart="17" />
<vehicle id="58" type="Car" route="routesilva" depart="17" />
<vehicle id="59" type="Car" route="routevalandro" depart="17" />
<vehicle id="57" type="Car" route="routefloriano" depart="18" />
<vehicle id="63" type="Car" route="routesilva" depart="18" />
<vehicle id="64" type="Car" route="routevalandro" depart="18" />
<vehicle id="60" type="Car" route="routeandradas" depart="19" />
<vehicle id="61" type="Car" route="routevenancio" depart="19" />
<vehicle id="62" type="Car" route="routefloriano" depart="19" />
<vehicle id="65" type="Car" route="routeandradas" depart="19" />
<vehicle id="66" type="Car" route="routevenancio" depart="19" />
<vehicle id="67" type="Car" route="routefloriano" depart="20" />
<vehicle id="68" type="Car" route="routesilva" depart="20" />
<vehicle id="69" type="Car" route="routevalandro" depart="20" />
<vehicle id="70" type="Car" route="routeandradas" depart="21" />
<vehicle id="72" type="Car" route="routefloriano" depart="21" />
<vehicle id="74" type="Car" route="routevalandro" depart="21" />
<vehicle id="71" type="Car" route="routevenancio" depart="22" />
<vehicle id="73" type="Car" route="routesilva" depart="22" />
<vehicle id="75" type="Car" route="routeandradas" depart="22" />
<vehicle id="77" type="Car" route="routefloriano" depart="22" />
<vehicle id="78" type="Car" route="routesilva" depart="22" />
<vehicle id="79" type="Car" route="routevalandro" depart="22" />
<vehicle id="76" type="Car" route="routevenancio" depart="23" />
<vehicle id="80" type="Car" route="routeandradas" depart="23" />
<vehicle id="83" type="Car" route="routesilva" depart="23" />
<vehicle id="81" type="Car" route="routevenancio" depart="24" />
<vehicle id="82" type="Car" route="routefloriano" depart="24" />
<vehicle id="84" type="Car" route="routevalandro" depart="24" />
<vehicle id="86" type="Car" route="routevenancio" depart="25" />
<vehicle id="87" type="Car" route="routefloriano" depart="25" />
<vehicle id="88" type="Car" route="routesilva" depart="25" />
<vehicle id="89" type="Car" route="routevalandro" depart="25" />
<vehicle id="85" type="Car" route="routeandradas" depart="26" />
<vehicle id="94" type="Car" route="routevalandro" depart="26" />
<vehicle id="90" type="Car" route="routeandradas" depart="27" />
<vehicle id="91" type="Car" route="routevenancio" depart="27" />
<vehicle id="92" type="Car" route="routefloriano" depart="27" />
<vehicle id="93" type="Car" route="routesilva" depart="27" />
<vehicle id="95" type="Car" route="routeandradas" depart="27" />
<vehicle id="97" type="Car" route="routefloriano" depart="27" />
<vehicle id="96" type="Car" route="routevenancio" depart="28" />
<vehicle id="98" type="Car" route="routesilva" depart="28" />
<vehicle id="99" type="Car" route="routevalandro" depart="28" />
</routes>
